# created with PyMOL 3.1.6.1
@<TRIPOS>MOLECULE
6w6s
102 105 1               
SMALL
USER_CHARGES
@<TRIPOS>ATOM
1	 P43	-31.991	-8.571	24.972	P.3	1	TK7201	0.000	
2	 C01	-34.564	5.758	25.175	C.2	1	TK7201	0.000	
3	 C02	-36.010	5.552	25.653	C.2	1	TK7201	0.000	
4	 C03	-36.542	4.129	25.860	C.2	1	TK7201	0.000	
5	 C04	-35.652	2.903	25.594	C.2	1	TK7201	0.000	
6	 C05	-34.195	3.108	25.111	C.2	1	TK7201	0.000	
7	 C06	-33.655	4.538	24.903	C.2	1	TK7201	0.000	
8	 S07	-36.396	1.227	25.862	S.O2	1	TK7201	0.000	
9	 O08	-36.718	1.016	27.271	O.2	1	TK7201	0.000	
10	 O09	-35.437	0.139	25.628	O.2	1	TK7201	0.000	
11	 N10	-37.849	1.073	24.889	N.3	1	TK7201	0.000	
12	 C11	-38.846	2.189	25.102	C.3	1	TK7201	0.000	
13	 C12	-37.671	0.485	23.510	C.3	1	TK7201	0.000	
14	 C13	-38.311	-0.933	23.404	C.3	1	TK7201	0.000	
15	 O14	-38.331	-1.354	22.079	O.3	1	TK7201	0.000	
16	 C15	-37.537	-1.961	24.238	C.3	1	TK7201	0.000	
17	 N16	-38.286	-3.211	24.211	N.pl3	1	TK7201	0.000	
18	 C17	-39.535	-3.356	24.994	C.2	1	TK7201	0.000	
19	 O18	-39.574	-3.033	26.140	O.co2	1	TK7201	0.000	
20	 O19	-40.692	-3.892	24.354	O.3	1	TK7201	0.000	
21	 C20	-41.365	-5.031	25.096	C.3	1	TK7201	0.000	
22	 C21	-42.587	-5.119	24.738	C.3	1	TK7201	0.000	
23	 O22	-42.658	-6.326	23.617	O.3	1	TK7201	0.000	
24	 C23	-40.734	-6.420	24.759	C.3	1	TK7201	0.000	
25	 C24	-41.845	-7.217	24.050	C.3	1	TK7201	0.000	
26	 C25	-39.746	-6.363	23.849	C.3	1	TK7201	0.000	
27	 C26	-39.830	-7.785	23.055	C.3	1	TK7201	0.000	
28	 O27	-41.114	-8.006	22.886	O.3	1	TK7201	0.000	
29	 C28	-36.121	-2.186	23.668	C.3	1	TK7201	0.000	
30	 C29	-35.700	-3.633	24.063	C.2	1	TK7201	0.000	
31	 C30	-36.092	-4.819	23.162	C.2	1	TK7201	0.000	
32	 C31	-35.710	-6.254	23.557	C.2	1	TK7201	0.000	
33	 C32	-34.913	-6.517	24.851	C.2	1	TK7201	0.000	
34	 C33	-34.524	-5.324	25.749	C.2	1	TK7201	0.000	
35	 C34	-34.915	-3.884	25.362	C.2	1	TK7201	0.000	
36	 O35	-34.577	-7.870	25.179	O.3	1	TK7201	0.000	
37	 C36	-40.576	4.266	25.785	C.3	1	TK7201	0.000	
38	 C37	-40.385	1.870	24.936	C.3	1	TK7201	0.000	
39	 C38	-41.172	2.860	25.830	C.3	1	TK7201	0.000	
40	 C39	-40.843	0.446	25.366	C.3	1	TK7201	0.000	
41	 C40	-39.980	-0.151	26.508	C.3	1	TK7201	0.000	
42	 N41	-34.079	7.126	24.983	N.pl3	1	TK7201	0.000	
43	 C42	-33.475	-8.124	26.042	C.3	1	TK7201	0.000	
44	 O44	-31.547	-7.192	24.136	O.3	1	TK7201	0.000	
45	 O45	-32.444	-9.770	23.897	O.3	1	TK7201	0.000	
46	 C46	-31.177	-7.273	22.772	C.3	1	TK7201	0.000	
47	 C47	-31.772	-10.995	23.888	C.3	1	TK7201	0.000	
48	 C48	-29.702	-6.815	22.640	C.3	1	TK7201	0.000	
49	 C49	-32.709	-12.271	24.500	C.3	1	TK7201	0.000	
50	 O50	-30.875	-9.025	25.807	O.2	1	TK7201	0.000	
51	H021	-36.558	6.285	25.816	 H	1	TK7201	0.000	
52	H031	-37.417	4.005	26.151	 H	1	TK7201	0.000	
53	H051	-33.649	2.373	24.947	 H	1	TK7201	0.000	
54	H061	-32.781	4.666	24.613	 H	1	TK7201	0.000	
55	H111	-38.719	2.518	26.006	 H	1	TK7201	0.000	
56	H112	-38.630	2.892	24.469	 H	1	TK7201	0.000	
57	H121	-38.092	1.070	22.862	 H	1	TK7201	0.000	
58	H122	-36.723	0.418	23.317	 H	1	TK7201	0.000	
59	H131	-39.217	-0.869	23.746	 H	1	TK7201	0.000	
60	H141	-37.675	-1.014	21.659	 H	1	TK7201	0.000	
61	H151	-37.438	-1.637	25.147	 H	1	TK7201	0.000	
62	H161	-38.002	-3.869	23.737	 H	1	TK7201	0.000	
63	H201	-41.289	-4.881	26.052	 H	1	TK7201	0.000	
64	H211	-42.877	-4.283	24.342	 H	1	TK7201	0.000	
65	H212	-43.141	-5.345	25.502	 H	1	TK7201	0.000	
66	H231	-40.425	-6.839	25.577	 H	1	TK7201	0.000	
67	H241	-42.296	-7.836	24.646	 H	1	TK7201	0.000	
68	H251	-38.886	-6.274	24.290	 H	1	TK7201	0.000	
69	H252	-39.892	-5.626	23.237	 H	1	TK7201	0.000	
70	H261	-39.384	-7.717	22.196	 H	1	TK7201	0.000	
71	H262	-39.435	-8.492	23.589	 H	1	TK7201	0.000	
72	H281	-36.131	-2.092	22.703	 H	1	TK7201	0.000	
73	H282	-35.502	-1.543	24.049	 H	1	TK7201	0.000	
74	H301	-36.564	-4.666	22.375	 H	1	TK7201	0.000	
75	H311	-35.960	-6.966	23.014	 H	1	TK7201	0.000	
76	H331	-34.048	-5.475	26.534	 H	1	TK7201	0.000	
77	H341	-34.678	-3.172	25.910	 H	1	TK7201	0.000	
78	H361	-40.501	4.027	24.847	 H	1	TK7201	0.000	
79	H362	-39.956	3.846	26.401	 H	1	TK7201	0.000	
80	H363	-41.461	4.476	26.120	 H	1	TK7201	0.000	
81	H371	-40.554	1.944	23.984	 H	1	TK7201	0.000	
82	H381	-42.091	2.898	25.521	 H	1	TK7201	0.000	
83	H382	-41.153	2.540	26.745	 H	1	TK7201	0.000	
84	H391	-40.787	-0.142	24.597	 H	1	TK7201	0.000	
85	H392	-41.764	0.496	25.669	 H	1	TK7201	0.000	
86	H401	-40.540	-0.689	27.089	 H	1	TK7201	0.000	
87	H402	-39.580	0.569	27.021	 H	1	TK7201	0.000	
88	H403	-39.281	-0.705	26.129	 H	1	TK7201	0.000	
89	H411	-33.311	7.265	24.624	 H	1	TK7201	0.000	
90	H412	-34.570	7.791	25.224	 H	1	TK7201	0.000	
91	H421	-33.277	-7.332	26.566	 H	1	TK7201	0.000	
92	H422	-33.685	-8.861	26.638	 H	1	TK7201	0.000	
93	H461	-31.749	-6.695	22.243	 H	1	TK7201	0.000	
94	H462	-31.266	-8.188	22.462	 H	1	TK7201	0.000	
95	H471	-31.523	-11.205	22.974	 H	1	TK7201	0.000	
96	H472	-30.972	-10.913	24.430	 H	1	TK7201	0.000	
97	H481	-29.614	-5.908	22.974	 H	1	TK7201	0.000	
98	H482	-29.437	-6.844	21.708	 H	1	TK7201	0.000	
99	H483	-29.133	-7.406	23.157	 H	1	TK7201	0.000	
100	H491	-32.535	-13.223	24.568	 H	1	TK7201	0.000	
101	H492	-33.582	-12.609	24.245	 H	1	TK7201	0.000	
102	H493	-33.077	-12.435	25.382	 H	1	TK7201	0.000	
@<TRIPOS>BOND
1 2 3 2
2 3 4 1
3 4 5 2
4 5 6 1
5 2 7 1
6 6 7 2
7 5 8 1
8 8 9 2
9 8 10 2
10 8 11 1
11 11 12 1
12 11 13 1
13 13 14 1
14 14 15 1
15 14 16 1
16 16 17 1
17 17 18 1
18 18 19 2
19 18 20 1
20 20 21 1
21 21 22 1
22 22 23 1
23 21 24 1
24 23 25 1
25 24 25 1
26 24 26 1
27 26 27 1
28 25 28 1
29 27 28 1
30 16 29 1
31 29 30 1
32 30 31 2
33 31 32 1
34 32 33 2
35 33 34 1
36 30 35 1
37 34 35 2
38 33 36 1
39 12 38 1
40 37 39 1
41 38 39 1
42 38 40 1
43 40 41 1
44 2 42 1
45 1 43 1
46 36 43 1
47 1 44 1
48 1 45 1
49 44 46 1
50 45 47 1
51 46 48 1
52 47 49 1
53 1 50 2
54 3 51 1
55 4 52 1
56 6 53 1
57 7 54 1
58 12 55 1
59 12 56 1
60 13 57 1
61 13 58 1
62 14 59 1
63 15 60 1
64 16 61 1
65 17 62 1
66 21 63 1
67 22 64 1
68 22 65 1
69 24 66 1
70 25 67 1
71 26 68 1
72 26 69 1
73 27 70 1
74 27 71 1
75 29 72 1
76 29 73 1
77 31 74 1
78 32 75 1
79 34 76 1
80 35 77 1
81 37 78 1
82 37 79 1
83 37 80 1
84 38 81 1
85 39 82 1
86 39 83 1
87 40 84 1
88 40 85 1
89 41 86 1
90 41 87 1
91 41 88 1
92 42 89 1
93 42 90 1
94 43 91 1
95 43 92 1
96 46 93 1
97 46 94 1
98 47 95 1
99 47 96 1
100 48 97 1
101 48 98 1
102 48 99 1
103 49 100 1
104 49 101 1
105 49 102 1
@<TRIPOS>SUBSTRUCTURE
1	TK7201	1	GROUP	1 A	TK7
