# created with PyMOL 3.1.6.1
@<TRIPOS>MOLECULE
6dh4
78 81 1                 
SMALL
USER_CHARGES
@<TRIPOS>ATOM
1	  N1	65.433	51.744	12.742	N.pl3	1	K13104	0.000	
2	  C2	66.369	52.411	13.612	C.2	1	K13104	0.000	
3	  C3	66.134	53.865	13.995	C.2	1	K13104	0.000	
4	  C4	67.117	54.577	14.909	C.2	1	K13104	0.000	
5	  C5	68.328	53.823	15.445	C.2	1	K13104	0.000	
6	  C6	68.570	52.372	15.062	C.2	1	K13104	0.000	
7	  C7	67.586	51.661	14.143	C.2	1	K13104	0.000	
8	  S8	69.500	54.678	16.524	S.O2	1	K13104	0.000	
9	  O9	68.846	55.762	17.261	O.2	1	K13104	0.000	
10	 O10	70.000	53.810	17.587	O.2	1	K13104	0.000	
11	 N11	70.772	55.243	15.530	N.3	1	K13104	0.000	
12	 C12	71.533	54.196	14.860	C.3	1	K13104	0.000	
13	 C13	73.000	54.582	14.688	C.3	1	K13104	0.000	
14	 C14	73.688	54.614	16.053	C.3	1	K13104	0.000	
15	 C15	73.693	53.570	13.773	C.3	1	K13104	0.000	
16	 C16	70.520	56.474	14.802	C.3	1	K13104	0.000	
17	 C17	71.416	57.596	15.330	C.3	1	K13104	0.000	
18	 C18	73.668	52.156	14.358	C.3	1	K13104	0.000	
19	 O18	71.262	58.734	14.530	O.3	1	K13104	0.000	
20	 C19	71.062	57.965	16.765	C.3	1	K13104	0.000	
21	 N20	72.055	58.919	17.211	N.pl3	1	K13104	0.000	
22	 C21	73.050	58.598	18.207	C.2	1	K13104	0.000	
23	 O22	73.054	57.552	18.768	O.co2	1	K13104	0.000	
24	 O23	74.002	59.591	18.454	O.3	1	K13104	0.000	
25	 C24	74.822	59.508	19.708	C.3	1	K13104	0.000	
26	 C25	75.991	59.914	19.431	C.3	1	K13104	0.000	
27	 O26	75.854	61.549	19.406	O.3	1	K13104	0.000	
28	 C27	74.982	61.860	20.304	C.3	1	K13104	0.000	
29	 O28	73.808	62.723	19.701	O.3	1	K13104	0.000	
30	 C29	72.756	61.933	19.648	C.3	1	K13104	0.000	
31	 C30	73.011	60.749	20.731	C.3	1	K13104	0.000	
32	 C31	74.338	60.542	20.764	C.3	1	K13104	0.000	
33	 C32	69.704	58.660	16.842	C.3	1	K13104	0.000	
34	 C33	69.115	58.102	19.356	C.2	1	K13104	0.000	
35	 C34	68.884	58.559	20.797	C.2	1	K13104	0.000	
36	 C35	69.002	60.039	21.155	C.2	1	K13104	0.000	
37	 C36	69.355	61.061	20.076	C.2	1	K13104	0.000	
38	 C37	69.588	60.603	18.636	C.2	1	K13104	0.000	
39	 C38	69.468	59.124	18.277	C.2	1	K13104	0.000	
40	 HN1	64.611	51.996	12.721	 H	1	K13104	0.000	
41	HN1A	65.696	51.095	12.244	 H	1	K13104	0.000	
42	HN20	72.052	59.708	16.869	 H	1	K13104	0.000	
43	HO18	71.432	58.537	13.721	 H	1	K13104	0.000	
44	  H3	65.391	54.318	13.668	 H	1	K13104	0.000	
45	  H4	66.977	55.465	15.145	 H	1	K13104	0.000	
46	  H6	69.314	51.921	15.388	 H	1	K13104	0.000	
47	  H7	67.725	50.772	13.908	 H	1	K13104	0.000	
48	 H12	71.145	54.034	13.986	 H	1	K13104	0.000	
49	 H13	73.052	55.463	14.285	 H	1	K13104	0.000	
50	 H14	74.596	54.286	15.966	 H	1	K13104	0.000	
51	 H15	74.615	53.842	13.644	 H	1	K13104	0.000	
52	 H16	70.703	56.333	13.860	 H	1	K13104	0.000	
53	 H17	72.341	57.307	15.295	 H	1	K13104	0.000	
54	 H18	74.136	52.149	15.208	 H	1	K13104	0.000	
55	 H19	71.073	57.177	17.330	 H	1	K13104	0.000	
56	 H24	74.837	58.609	20.073	 H	1	K13104	0.000	
57	 H25	76.254	59.585	18.558	 H	1	K13104	0.000	
58	 H27	75.401	62.318	21.049	 H	1	K13104	0.000	
59	 H29	72.670	61.555	18.759	 H	1	K13104	0.000	
60	 H30	72.556	59.939	20.451	 H	1	K13104	0.000	
61	 H31	74.635	60.300	21.655	 H	1	K13104	0.000	
62	 H32	69.006	58.040	16.581	 H	1	K13104	0.000	
63	 H33	69.045	57.201	19.137	 H	1	K13104	0.000	
64	 H34	68.668	57.937	21.453	 H	1	K13104	0.000	
65	 H35	68.859	60.318	22.030	 H	1	K13104	0.000	
66	 H36	69.426	61.962	20.295	 H	1	K13104	0.000	
67	 H37	69.803	61.225	17.979	 H	1	K13104	0.000	
68	H12A	71.480	53.382	15.385	 H	1	K13104	0.000	
69	H14A	73.704	55.525	16.386	 H	1	K13104	0.000	
70	H14B	73.199	54.051	16.674	 H	1	K13104	0.000	
71	H15A	73.243	53.564	12.913	 H	1	K13104	0.000	
72	H16A	69.590	56.727	14.913	 H	1	K13104	0.000	
73	H18A	72.749	51.878	14.493	 H	1	K13104	0.000	
74	H18B	74.104	51.544	13.744	 H	1	K13104	0.000	
75	H25A	76.621	59.634	20.114	 H	1	K13104	0.000	
76	H29A	71.957	62.430	19.883	 H	1	K13104	0.000	
77	H30A	72.697	61.027	21.606	 H	1	K13104	0.000	
78	H32A	69.697	59.427	16.247	 H	1	K13104	0.000	
@<TRIPOS>BOND
1 1 2 1
2 2 3 2
3 3 4 1
4 4 5 2
5 5 6 1
6 2 7 1
7 6 7 2
8 5 8 1
9 8 9 2
10 8 10 2
11 8 11 1
12 11 12 1
13 12 13 1
14 13 14 1
15 13 15 1
16 11 16 1
17 16 17 1
18 15 18 1
19 17 19 1
20 17 20 1
21 20 21 1
22 21 22 1
23 22 23 2
24 22 24 1
25 24 25 1
26 25 26 1
27 26 27 1
28 27 28 1
29 28 29 1
30 29 30 1
31 30 31 1
32 25 32 1
33 28 32 1
34 31 32 1
35 20 33 1
36 34 35 2
37 35 36 1
38 36 37 2
39 37 38 1
40 33 39 1
41 34 39 1
42 38 39 2
43 1 40 1
44 1 41 1
45 21 42 1
46 19 43 1
47 3 44 1
48 4 45 1
49 6 46 1
50 7 47 1
51 12 48 1
52 13 49 1
53 14 50 1
54 15 51 1
55 16 52 1
56 17 53 1
57 18 54 1
58 20 55 1
59 25 56 1
60 26 57 1
61 28 58 1
62 30 59 1
63 31 60 1
64 32 61 1
65 33 62 1
66 34 63 1
67 35 64 1
68 36 65 1
69 37 66 1
70 38 67 1
71 12 68 1
72 14 69 1
73 14 70 1
74 15 71 1
75 16 72 1
76 18 73 1
77 18 74 1
78 26 75 1
79 30 76 1
80 31 77 1
81 33 78 1
@<TRIPOS>SUBSTRUCTURE
1	K13104	1	GROUP	1 A	K13
