# created with PyMOL 3.1.6.1
@<TRIPOS>MOLECULE
1yt9
48 51 1                 
SMALL
USER_CHARGES
@<TRIPOS>ATOM
1	  C1	14.887	20.802	4.738	C.2	1	OIS1000	0.000	
2	  N1	15.277	22.087	5.054	N.pl3	1	OIS1000	0.000	
3	  O1	14.912	24.926	4.272	O.3	1	OIS1000	0.000	
4	  S1	10.692	24.235	6.928	S.O2	1	OIS1000	0.000	
5	  C2	14.303	23.032	5.663	C.3	1	OIS1000	0.000	
6	  N2	11.464	24.321	5.330	N.3	1	OIS1000	0.000	
7	  O2	9.735	23.175	6.781	O.2	1	OIS1000	0.000	
8	  S2	20.409	19.534	11.127	S.3	1	OIS1000	0.000	
9	  C3	13.823	24.123	4.664	C.3	1	OIS1000	0.000	
10	  N3	19.679	17.769	9.351	N.2	1	OIS1000	0.000	
11	  O3	11.750	24.011	7.867	O.2	1	OIS1000	0.000	
12	  C4	14.974	23.605	6.941	C.3	1	OIS1000	0.000	
13	  N4	16.852	19.349	5.239	N.pl3	1	OIS1000	0.000	
14	  O4	13.750	20.347	4.913	O.2	1	OIS1000	0.000	
15	  C5	12.734	25.061	5.249	C.3	1	OIS1000	0.000	
16	  N5	18.588	19.006	6.561	N.pl3	1	OIS1000	0.000	
17	  O5	18.823	20.503	4.851	O.2	1	OIS1000	0.000	
18	  C6	16.356	18.353	6.203	C.3	1	OIS1000	0.000	
19	  N6	6.373	29.483	8.273	N.2	1	OIS1000	0.000	
20	  C7	10.697	23.699	3.005	C.3	1	OIS1000	0.000	
21	  O7	5.770	30.630	8.783	O.3	1	OIS1000	0.000	
22	  C8	10.534	24.601	4.243	C.3	1	OIS1000	0.000	
23	  C9	20.421	19.979	9.439	C.2	1	OIS1000	0.000	
24	 C10	19.950	19.124	7.122	C.3	1	OIS1000	0.000	
25	 C11	15.467	22.543	7.885	C.2	1	OIS1000	0.000	
26	 C12	16.839	22.482	8.215	C.2	1	OIS1000	0.000	
27	 C13	17.318	21.489	9.085	C.2	1	OIS1000	0.000	
28	 C14	16.446	20.535	9.642	C.2	1	OIS1000	0.000	
29	 C15	15.069	20.582	9.321	C.2	1	OIS1000	0.000	
30	 C16	14.585	21.582	8.446	C.2	1	OIS1000	0.000	
31	 C17	9.688	24.085	1.926	C.3	1	OIS1000	0.000	
32	 C18	10.503	22.225	3.386	C.3	1	OIS1000	0.000	
33	 C19	16.007	19.888	4.137	C.3	1	OIS1000	0.000	
34	 C20	18.146	19.698	5.485	C.2	1	OIS1000	0.000	
35	 C21	15.400	18.708	3.306	C.3	1	OIS1000	0.000	
36	 C22	14.511	19.190	2.148	C.3	1	OIS1000	0.000	
37	 C23	16.509	17.806	2.727	C.3	1	OIS1000	0.000	
38	 C24	20.025	18.994	8.617	C.2	1	OIS1000	0.000	
39	 C25	19.559	16.817	11.702	C.3	1	OIS1000	0.000	
40	 C28	19.835	17.913	10.674	C.2	1	OIS1000	0.000	
41	 C31	17.559	18.115	7.114	C.3	1	OIS1000	0.000	
42	 C32	8.448	25.855	6.989	C.2	1	OIS1000	0.000	
43	 C34	7.712	26.986	7.407	C.2	1	OIS1000	0.000	
44	 C35	8.314	27.942	8.265	C.2	1	OIS1000	0.000	
45	 C36	9.653	27.755	8.698	C.2	1	OIS1000	0.000	
46	 C37	10.385	26.623	8.280	C.2	1	OIS1000	0.000	
47	 C38	9.784	25.676	7.428	C.2	1	OIS1000	0.000	
48	 C40	7.586	29.126	8.728	C.2	1	OIS1000	0.000	
@<TRIPOS>BOND
1 1 2 1
2 2 5 1
3 4 6 1
4 4 7 2
5 3 9 1
6 5 9 1
7 4 11 2
8 5 12 1
9 1 14 2
10 6 15 1
11 9 15 1
12 13 18 1
13 19 21 1
14 6 22 1
15 20 22 1
16 8 23 1
17 16 24 1
18 12 25 1
19 25 26 2
20 26 27 1
21 27 28 2
22 28 29 1
23 25 30 1
24 29 30 2
25 20 31 1
26 20 32 1
27 1 33 1
28 13 33 1
29 13 34 1
30 16 34 1
31 17 34 2
32 33 35 1
33 35 36 1
34 35 37 1
35 10 38 1
36 23 38 2
37 24 38 1
38 8 40 1
39 10 40 2
40 39 40 1
41 16 41 1
42 18 41 1
43 42 43 1
44 43 44 2
45 44 45 1
46 45 46 2
47 4 47 1
48 42 47 2
49 46 47 1
50 19 48 2
51 44 48 1
@<TRIPOS>SUBSTRUCTURE
1	OIS1000	1	GROUP	1 A	OIS
