# created with PyMOL 3.1.6.1
@<TRIPOS>MOLECULE
6dh1
78 81 1                 
SMALL
USER_CHARGES
@<TRIPOS>ATOM
1	  N1	116.882	51.795	12.636	N.pl3	1	K13102	0.000	
2	  C2	117.825	52.435	13.526	C.2	1	K13102	0.000	
3	  C3	117.661	53.910	13.851	C.2	1	K13102	0.000	
4	  C4	118.636	54.601	14.785	C.2	1	K13102	0.000	
5	  C5	119.772	53.802	15.405	C.2	1	K13102	0.000	
6	  C6	119.954	52.326	15.082	C.2	1	K13102	0.000	
7	  C7	118.971	51.643	14.144	C.2	1	K13102	0.000	
8	  S8	120.925	54.662	16.494	S.O2	1	K13102	0.000	
9	  O9	120.277	55.751	17.227	O.2	1	K13102	0.000	
10	 O10	121.452	53.820	17.567	O.2	1	K13102	0.000	
11	 N11	122.157	55.231	15.457	N.3	1	K13102	0.000	
12	 C12	122.814	54.178	14.696	C.3	1	K13102	0.000	
13	 C13	124.292	54.471	14.460	C.3	1	K13102	0.000	
14	 C14	125.028	54.532	15.798	C.3	1	K13102	0.000	
15	 C15	124.872	53.370	13.564	C.3	1	K13102	0.000	
16	 C16	121.842	56.464	14.756	C.3	1	K13102	0.000	
17	 C17	122.771	57.587	15.219	C.3	1	K13102	0.000	
18	 C18	125.083	52.057	14.325	C.3	1	K13102	0.000	
19	 O18	122.598	58.709	14.397	O.3	1	K13102	0.000	
20	 C19	122.457	57.968	16.663	C.3	1	K13102	0.000	
21	 N20	123.478	58.901	17.083	N.pl3	1	K13102	0.000	
22	 C21	124.443	58.597	18.114	C.2	1	K13102	0.000	
23	 O22	124.427	57.564	18.698	O.co2	1	K13102	0.000	
24	 O23	125.387	59.593	18.368	O.3	1	K13102	0.000	
25	 C24	126.246	59.505	19.595	C.3	1	K13102	0.000	
26	 C25	127.399	59.904	19.252	C.3	1	K13102	0.000	
27	 O26	127.245	61.539	19.199	O.3	1	K13102	0.000	
28	 C27	126.442	61.867	20.156	C.3	1	K13102	0.000	
29	 O28	125.243	62.759	19.652	O.3	1	K13102	0.000	
30	 C29	124.177	61.991	19.646	C.3	1	K13102	0.000	
31	 C30	124.485	60.761	20.664	C.3	1	K13102	0.000	
32	 C31	125.813	60.557	20.652	C.3	1	K13102	0.000	
33	 C32	121.116	58.697	16.774	C.3	1	K13102	0.000	
34	 C33	120.639	58.099	19.306	C.2	1	K13102	0.000	
35	 C34	120.422	58.534	20.755	C.2	1	K13102	0.000	
36	 C35	120.463	60.015	21.120	C.2	1	K13102	0.000	
37	 C36	120.719	61.062	20.039	C.2	1	K13102	0.000	
38	 C37	120.937	60.624	18.590	C.2	1	K13102	0.000	
39	 C38	120.898	59.142	18.221	C.2	1	K13102	0.000	
40	 HN1	117.162	51.247	12.035	 H	1	K13102	0.000	
41	HN1A	116.041	51.962	12.708	 H	1	K13102	0.000	
42	HN20	123.512	59.671	16.702	 H	1	K13102	0.000	
43	HO18	123.274	59.219	14.468	 H	1	K13102	0.000	
44	  H3	116.960	54.392	13.475	 H	1	K13102	0.000	
45	  H4	118.537	55.505	14.982	 H	1	K13102	0.000	
46	  H6	120.656	51.846	15.459	 H	1	K13102	0.000	
47	  H7	119.070	50.739	13.947	 H	1	K13102	0.000	
48	 H12	122.729	53.345	15.184	 H	1	K13102	0.000	
49	 H13	124.379	55.326	14.010	 H	1	K13102	0.000	
50	 H14	125.972	54.360	15.656	 H	1	K13102	0.000	
51	 H15	125.724	53.669	13.211	 H	1	K13102	0.000	
52	 H16	121.960	56.328	13.803	 H	1	K13102	0.000	
53	 H17	123.691	57.286	15.160	 H	1	K13102	0.000	
54	 H18	125.857	52.137	14.903	 H	1	K13102	0.000	
55	 H19	122.463	57.181	17.230	 H	1	K13102	0.000	
56	 H24	126.271	58.610	19.967	 H	1	K13102	0.000	
57	 H25	127.618	59.558	18.373	 H	1	K13102	0.000	
58	 H27	126.923	62.309	20.873	 H	1	K13102	0.000	
59	 H29	124.020	61.650	18.752	 H	1	K13102	0.000	
60	 H30	124.022	59.962	20.370	 H	1	K13102	0.000	
61	 H31	126.141	60.324	21.535	 H	1	K13102	0.000	
62	 H32	120.396	58.104	16.511	 H	1	K13102	0.000	
63	 H33	120.615	57.196	19.085	 H	1	K13102	0.000	
64	 H34	120.265	57.897	21.414	 H	1	K13102	0.000	
65	 H35	120.329	60.280	22.001	 H	1	K13102	0.000	
66	 H36	120.744	61.965	20.261	 H	1	K13102	0.000	
67	 H37	121.094	61.262	17.932	 H	1	K13102	0.000	
68	H12A	122.370	54.085	13.838	 H	1	K13102	0.000	
69	H14A	124.915	55.413	16.189	 H	1	K13102	0.000	
70	H14B	124.664	53.863	16.399	 H	1	K13102	0.000	
71	H15A	124.263	53.212	12.826	 H	1	K13102	0.000	
72	H16A	120.920	56.706	14.929	 H	1	K13102	0.000	
73	H18A	124.300	51.857	14.860	 H	1	K13102	0.000	
74	H18B	125.230	51.338	13.690	 H	1	K13102	0.000	
75	H25A	128.063	59.640	19.907	 H	1	K13102	0.000	
76	H29A	123.407	62.492	19.957	 H	1	K13102	0.000	
77	H30A	124.200	61.000	21.560	 H	1	K13102	0.000	
78	H32A	121.121	59.475	16.195	 H	1	K13102	0.000	
@<TRIPOS>BOND
1 1 2 1
2 2 3 2
3 3 4 1
4 4 5 2
5 5 6 1
6 2 7 1
7 6 7 2
8 5 8 1
9 8 9 2
10 8 10 2
11 8 11 1
12 11 12 1
13 12 13 1
14 13 14 1
15 13 15 1
16 11 16 1
17 16 17 1
18 15 18 1
19 17 19 1
20 17 20 1
21 20 21 1
22 21 22 1
23 22 23 2
24 22 24 1
25 24 25 1
26 25 26 1
27 26 27 1
28 27 28 1
29 28 29 1
30 29 30 1
31 30 31 1
32 25 32 1
33 28 32 1
34 31 32 1
35 20 33 1
36 34 35 2
37 35 36 1
38 36 37 2
39 37 38 1
40 33 39 1
41 34 39 1
42 38 39 2
43 1 40 1
44 1 41 1
45 21 42 1
46 19 43 1
47 3 44 1
48 4 45 1
49 6 46 1
50 7 47 1
51 12 48 1
52 13 49 1
53 14 50 1
54 15 51 1
55 16 52 1
56 17 53 1
57 18 54 1
58 20 55 1
59 25 56 1
60 26 57 1
61 28 58 1
62 30 59 1
63 31 60 1
64 32 61 1
65 33 62 1
66 34 63 1
67 35 64 1
68 36 65 1
69 37 66 1
70 38 67 1
71 12 68 1
72 14 69 1
73 14 70 1
74 15 71 1
75 16 72 1
76 18 73 1
77 18 74 1
78 26 75 1
79 30 76 1
80 31 77 1
81 33 78 1
@<TRIPOS>SUBSTRUCTURE
1	K13102	1	GROUP	1 A	K13
