# created with PyMOL 3.1.6.1
@<TRIPOS>MOLECULE
3o9g
41 44 1                 
SMALL
USER_CHARGES
@<TRIPOS>ATOM
1	  C1	14.296	35.789	18.235	C.3	1	F53200	0.000	
2	  O1	14.851	35.860	19.559	O.3	1	F53200	0.000	
3	  C2	15.206	34.922	17.379	C.2	1	F53200	0.000	
4	  C3	16.236	35.515	16.658	C.2	1	F53200	0.000	
5	  C4	17.074	34.725	15.848	C.2	1	F53200	0.000	
6	  C5	16.910	33.327	15.755	C.2	1	F53200	0.000	
7	  C6	15.881	32.746	16.516	C.2	1	F53200	0.000	
8	  C7	15.021	33.542	17.302	C.2	1	F53200	0.000	
9	  O8	22.521	24.606	11.272	O.3	1	F53200	0.000	
10	  S8	17.929	32.399	14.872	S.O2	1	F53200	0.000	
11	  O9	18.597	33.215	13.928	O.2	1	F53200	0.000	
12	 O10	17.218	31.289	14.294	O.2	1	F53200	0.000	
13	 N11	19.121	31.798	15.794	N.3	1	F53200	0.000	
14	 C12	19.781	32.844	16.627	C.3	1	F53200	0.000	
15	 C13	21.289	32.632	16.568	C.3	1	F53200	0.000	
16	 C14	21.849	32.816	15.156	C.3	1	F53200	0.000	
17	 C15	21.975	33.555	17.577	C.3	1	F53200	0.000	
18	 C16	18.823	30.498	16.431	C.3	1	F53200	0.000	
19	 C17	19.794	29.434	15.881	C.3	1	F53200	0.000	
20	 C18	21.803	35.024	17.258	C.3	1	F53200	0.000	
21	 O18	19.789	28.243	16.695	O.3	1	F53200	0.000	
22	 C19	19.467	29.049	14.433	C.3	1	F53200	0.000	
23	 C20	23.330	32.494	15.031	C.3	1	F53200	0.000	
24	 N20	20.562	28.257	13.923	N.pl3	1	F53200	0.000	
25	 C21	21.457	28.638	13.010	C.2	1	F53200	0.000	
26	 O22	21.555	29.684	12.400	O.co2	1	F53200	0.000	
27	 O23	22.439	27.609	12.764	O.3	1	F53200	0.000	
28	 C24	23.277	27.779	11.629	C.3	1	F53200	0.000	
29	 C25	24.591	27.181	12.126	C.3	1	F53200	0.000	
30	 O26	24.390	25.776	11.972	O.3	1	F53200	0.000	
31	 C27	23.516	25.546	10.872	C.3	1	F53200	0.000	
32	 C29	21.237	25.251	11.318	C.3	1	F53200	0.000	
33	 C30	21.365	26.490	10.439	C.3	1	F53200	0.000	
34	 C31	22.848	26.854	10.511	C.3	1	F53200	0.000	
35	 C32	18.190	28.221	14.273	C.3	1	F53200	0.000	
36	 C33	18.081	26.589	12.362	C.2	1	F53200	0.000	
37	 C34	17.897	26.228	11.032	C.2	1	F53200	0.000	
38	 C35	17.565	27.211	10.109	C.2	1	F53200	0.000	
39	 C36	17.433	28.525	10.534	C.2	1	F53200	0.000	
40	 C37	17.608	28.882	11.881	C.2	1	F53200	0.000	
41	 C38	17.960	27.906	12.807	C.2	1	F53200	0.000	
@<TRIPOS>BOND
1 1 2 1
2 1 3 1
3 3 4 2
4 4 5 1
5 5 6 2
6 6 7 1
7 3 8 1
8 7 8 2
9 6 10 1
10 10 11 2
11 10 12 2
12 10 13 1
13 13 14 1
14 14 15 1
15 15 16 1
16 15 17 1
17 13 18 1
18 18 19 1
19 17 20 1
20 19 21 1
21 19 22 1
22 16 23 1
23 22 24 1
24 24 25 1
25 25 26 2
26 25 27 1
27 27 28 1
28 28 29 1
29 29 30 1
30 9 31 1
31 30 31 1
32 9 32 1
33 32 33 1
34 28 34 1
35 31 34 1
36 33 34 1
37 22 35 1
38 36 37 2
39 37 38 1
40 38 39 2
41 39 40 1
42 35 41 1
43 36 41 1
44 40 41 2
@<TRIPOS>SUBSTRUCTURE
1	F53200	1	GROUP	1 A	F53
