# created with PyMOL 3.1.6.1
@<TRIPOS>MOLECULE
3o9a
40 43 1                 
SMALL
USER_CHARGES
@<TRIPOS>ATOM
1	  C1	15.264	36.898	18.862	C.3	1	K14200	0.000	
2	  O1	14.913	35.543	18.538	O.3	1	K14200	0.000	
3	  C2	15.643	34.794	17.638	C.2	1	K14200	0.000	
4	  C3	16.669	35.365	16.874	C.2	1	K14200	0.000	
5	  C4	17.401	34.581	15.979	C.2	1	K14200	0.000	
6	  C5	17.150	33.223	15.809	C.2	1	K14200	0.000	
7	  C6	16.115	32.661	16.571	C.2	1	K14200	0.000	
8	  C7	15.378	33.432	17.487	C.2	1	K14200	0.000	
9	  S8	18.051	32.334	14.775	S.O2	1	K14200	0.000	
10	  O9	17.273	31.252	14.266	O.2	1	K14200	0.000	
11	 O10	18.569	33.148	13.697	O.2	1	K14200	0.000	
12	 N11	19.364	31.737	15.510	N.3	1	K14200	0.000	
13	 C12	20.078	32.778	16.295	C.3	1	K14200	0.000	
14	 C13	21.580	32.485	16.381	C.3	1	K14200	0.000	
15	 C14	22.264	32.392	15.011	C.3	1	K14200	0.000	
16	 C15	22.246	33.525	17.285	C.3	1	K14200	0.000	
17	 C16	19.091	30.511	16.293	C.3	1	K14200	0.000	
18	 C17	19.938	29.364	15.733	C.3	1	K14200	0.000	
19	 C18	22.136	34.942	16.785	C.3	1	K14200	0.000	
20	 O18	19.884	28.234	16.612	O.3	1	K14200	0.000	
21	 C19	19.540	28.913	14.333	C.3	1	K14200	0.000	
22	 N20	20.623	28.100	13.851	N.pl3	1	K14200	0.000	
23	 C21	21.474	28.439	12.886	C.2	1	K14200	0.000	
24	 O22	21.503	29.472	12.236	O.co2	1	K14200	0.000	
25	 O23	22.434	27.400	12.639	O.3	1	K14200	0.000	
26	 C24	23.284	27.515	11.510	C.3	1	K14200	0.000	
27	 C25	24.609	26.959	11.981	C.3	1	K14200	0.000	
28	 O26	24.448	25.539	11.870	O.3	1	K14200	0.000	
29	 C27	23.537	25.263	10.802	C.3	1	K14200	0.000	
30	 O28	22.509	24.361	11.212	O.3	1	K14200	0.000	
31	 C29	21.222	25.002	11.196	C.3	1	K14200	0.000	
32	 C30	21.386	26.225	10.307	C.3	1	K14200	0.000	
33	 C31	22.866	26.564	10.409	C.3	1	K14200	0.000	
34	 C32	18.225	28.122	14.244	C.3	1	K14200	0.000	
35	 C33	18.139	26.419	12.377	C.2	1	K14200	0.000	
36	 C34	17.943	26.068	11.055	C.2	1	K14200	0.000	
37	 C35	17.591	27.029	10.129	C.2	1	K14200	0.000	
38	 C36	17.444	28.346	10.523	C.2	1	K14200	0.000	
39	 C37	17.628	28.695	11.856	C.2	1	K14200	0.000	
40	 C38	17.987	27.739	12.789	C.2	1	K14200	0.000	
@<TRIPOS>BOND
1 1 2 1
2 2 3 1
3 3 4 2
4 4 5 1
5 5 6 2
6 6 7 1
7 3 8 1
8 7 8 2
9 6 9 1
10 9 10 2
11 9 11 2
12 9 12 1
13 12 13 1
14 13 14 1
15 14 15 1
16 14 16 1
17 12 17 1
18 17 18 1
19 16 19 1
20 18 20 1
21 18 21 1
22 21 22 1
23 22 23 1
24 23 24 2
25 23 25 1
26 25 26 1
27 26 27 1
28 27 28 1
29 28 29 1
30 29 30 1
31 30 31 1
32 31 32 1
33 26 33 1
34 29 33 1
35 32 33 1
36 21 34 1
37 35 36 2
38 36 37 1
39 37 38 2
40 38 39 1
41 34 40 1
42 35 40 1
43 39 40 2
@<TRIPOS>SUBSTRUCTURE
1	K14200	1	GROUP	1 A	K14
