# created with PyMOL 3.1.6.1
@<TRIPOS>MOLECULE
3o9f
41 44 1                 
SMALL
USER_CHARGES
@<TRIPOS>ATOM
1	  C1	15.149	36.922	18.882	C.3	1	K2D200	0.000	
2	  O1	14.771	35.559	18.641	O.3	1	K2D200	0.000	
3	  C2	15.497	34.834	17.724	C.2	1	K2D200	0.000	
4	  C3	16.450	35.473	16.908	C.2	1	K2D200	0.000	
5	  C4	17.184	34.702	15.998	C.2	1	K2D200	0.000	
6	  C5	16.969	33.330	15.834	C.2	1	K2D200	0.000	
7	  C6	16.010	32.713	16.649	C.2	1	K2D200	0.000	
8	  C7	15.276	33.462	17.579	C.2	1	K2D200	0.000	
9	  S8	17.905	32.467	14.799	S.O2	1	K2D200	0.000	
10	  O9	18.497	33.313	13.789	O.2	1	K2D200	0.000	
11	 O10	17.175	31.381	14.243	O.2	1	K2D200	0.000	
12	 N11	19.163	31.851	15.629	N.3	1	K2D200	0.000	
13	 C12	19.845	32.835	16.520	C.3	1	K2D200	0.000	
14	 C13	21.372	32.688	16.485	C.3	1	K2D200	0.000	
15	 C14	21.931	32.819	15.066	C.3	1	K2D200	0.000	
16	 C15	22.023	33.672	17.466	C.3	1	K2D200	0.000	
17	 C16	18.862	30.557	16.285	C.3	1	K2D200	0.000	
18	 C17	19.824	29.501	15.726	C.3	1	K2D200	0.000	
19	 C18	21.888	35.120	17.073	C.3	1	K2D200	0.000	
20	 O18	19.824	28.336	16.568	O.3	1	K2D200	0.000	
21	 C19	19.501	29.091	14.298	C.3	1	K2D200	0.000	
22	 C20	23.330	32.253	14.934	C.3	1	K2D200	0.000	
23	 N20	20.607	28.291	13.838	N.pl3	1	K2D200	0.000	
24	 C21	21.498	28.656	12.919	C.2	1	K2D200	0.000	
25	 O22	21.578	29.702	12.298	O.co2	1	K2D200	0.000	
26	 O23	22.449	27.611	12.655	O.3	1	K2D200	0.000	
27	 C24	23.298	27.778	11.523	C.3	1	K2D200	0.000	
28	 C25	24.630	27.231	11.996	C.3	1	K2D200	0.000	
29	 O26	24.426	25.827	11.871	O.3	1	K2D200	0.000	
30	 C27	23.531	25.549	10.788	C.3	1	K2D200	0.000	
31	 O28	22.534	24.602	11.175	O.3	1	K2D200	0.000	
32	 C29	21.244	25.229	11.158	C.3	1	K2D200	0.000	
33	 C30	21.372	26.498	10.323	C.3	1	K2D200	0.000	
34	 C31	22.850	26.849	10.409	C.3	1	K2D200	0.000	
35	 C32	18.207	28.284	14.191	C.3	1	K2D200	0.000	
36	 C33	18.084	26.588	12.328	C.2	1	K2D200	0.000	
37	 C34	17.874	26.236	11.006	C.2	1	K2D200	0.000	
38	 C35	17.531	27.206	10.085	C.2	1	K2D200	0.000	
39	 C36	17.409	28.535	10.479	C.2	1	K2D200	0.000	
40	 C37	17.615	28.893	11.813	C.2	1	K2D200	0.000	
41	 C38	17.962	27.915	12.740	C.2	1	K2D200	0.000	
@<TRIPOS>BOND
1 1 2 1
2 2 3 1
3 3 4 2
4 4 5 1
5 5 6 2
6 6 7 1
7 3 8 1
8 7 8 2
9 6 9 1
10 9 10 2
11 9 11 2
12 9 12 1
13 12 13 1
14 13 14 1
15 14 15 1
16 14 16 1
17 12 17 1
18 17 18 1
19 16 19 1
20 18 20 1
21 18 21 1
22 15 22 1
23 21 23 1
24 23 24 1
25 24 25 2
26 24 26 1
27 26 27 1
28 27 28 1
29 28 29 1
30 29 30 1
31 30 31 1
32 31 32 1
33 32 33 1
34 27 34 1
35 30 34 1
36 33 34 1
37 21 35 1
38 36 37 2
39 37 38 1
40 38 39 2
41 39 40 1
42 35 41 1
43 36 41 1
44 40 41 2
@<TRIPOS>SUBSTRUCTURE
1	K2D200	1	GROUP	1 A	K2D
