# created with PyMOL 3.1.6.1
@<TRIPOS>MOLECULE
4m8y
98 104 2                
SMALL
USER_CHARGES
@<TRIPOS>ATOM
1	   N	-11.713	52.548	2.153	N.pl3	1	KGQ201	0.000	
2	   C	-13.642	51.328	-1.499	C.3	1	KGQ201	0.000	
3	   O	-14.573	47.095	1.815	O.3	1	KGQ201	0.000	
4	   P	-16.372	46.448	-0.211	P.3	1	KGQ201	0.000	
5	  C1	-13.335	50.278	-0.429	C.3	1	KGQ201	0.000	
6	  N1	-12.333	54.966	5.825	N.3	1	KGQ201	0.000	
7	  O1	-16.011	44.961	0.242	O.3	1	KGQ201	0.000	
8	  C2	-12.454	49.276	-1.161	C.3	1	KGQ201	0.000	
9	  O2	-15.851	46.633	-1.754	O.2	1	KGQ201	0.000	
10	  C3	-12.723	53.377	-2.213	C.3	1	KGQ201	0.000	
11	  O3	-17.958	46.805	-0.249	O.3	1	KGQ201	0.000	
12	  C4	-12.653	52.853	1.267	C.2	1	KGQ201	0.000	
13	  O4	-11.902	52.346	-2.811	O.3	1	KGQ201	0.000	
14	  C5	-13.347	52.740	-1.002	C.3	1	KGQ201	0.000	
15	  O5	-12.392	55.332	12.405	O.3	1	KGQ201	0.000	
16	  C6	-11.898	52.667	3.596	C.3	1	KGQ201	0.000	
17	  O6	-12.296	52.711	-0.036	O.3	1	KGQ201	0.000	
18	  C7	-10.973	53.783	4.093	C.3	1	KGQ201	0.000	
19	  O7	-13.769	53.271	1.573	O.co2	1	KGQ201	0.000	
20	  C8	-11.578	51.302	4.225	C.3	1	KGQ201	0.000	
21	  O8	-9.622	53.368	3.899	O.3	1	KGQ201	0.000	
22	  C9	-12.392	50.171	3.578	C.2	1	KGQ201	0.000	
23	  O9	-14.802	54.548	6.350	O.2	1	KGQ201	0.000	
24	 C10	-11.745	49.137	2.908	C.2	1	KGQ201	0.000	
25	 O10	-13.239	52.651	6.436	O.2	1	KGQ201	0.000	
26	 C11	-13.775	50.159	3.667	C.2	1	KGQ201	0.000	
27	 O11	-11.660	50.107	-2.038	O.3	1	KGQ201	0.000	
28	 C12	-12.466	48.104	2.323	C.2	1	KGQ201	0.000	
29	 C13	-14.498	49.122	3.076	C.2	1	KGQ201	0.000	
30	 C14	-13.853	48.092	2.401	C.2	1	KGQ201	0.000	
31	 C15	-15.490	47.675	0.855	C.3	1	KGQ201	0.000	
32	 C16	-14.742	44.431	-0.165	C.3	1	KGQ201	0.000	
33	 C17	-14.630	42.950	0.198	C.3	1	KGQ201	0.000	
34	 C18	-18.874	46.272	0.679	C.3	1	KGQ201	0.000	
35	 C19	-20.122	47.154	0.689	C.3	1	KGQ201	0.000	
36	 C20	-11.164	54.104	5.571	C.3	1	KGQ201	0.000	
37	 C21	-12.979	55.403	4.581	C.3	1	KGQ201	0.000	
38	 C22	-12.638	56.856	4.302	C.3	1	KGQ201	0.000	
39	 C23	-13.110	54.466	8.418	C.2	1	KGQ201	0.000	
40	 C24	-12.285	53.643	9.178	C.2	1	KGQ201	0.000	
41	 C25	-12.045	53.940	10.514	C.2	1	KGQ201	0.000	
42	 C26	-12.631	55.058	11.098	C.2	1	KGQ201	0.000	
43	 C27	-13.457	55.888	10.346	C.2	1	KGQ201	0.000	
44	 C28	-13.692	55.588	9.009	C.2	1	KGQ201	0.000	
45	 C29	-11.131	57.023	4.320	C.3	1	KGQ201	0.000	
46	 C30	-13.268	57.788	5.323	C.3	1	KGQ201	0.000	
47	 C31	-13.480	56.031	13.012	C.3	1	KGQ201	0.000	
48	 C32	-12.592	51.077	-2.600	C.3	1	KGQ201	0.000	
49	   S	-13.403	54.119	6.710	S.O2	1	KGQ201	0.000	
50	   N	-11.767	54.652	5.930	N.pl3	2	KGQ202	0.000	
51	   C	-13.616	55.897	9.645	C.3	2	KGQ202	0.000	
52	   O	-14.549	60.076	6.356	O.3	2	KGQ202	0.000	
53	   P	-16.506	60.748	8.193	P.3	2	KGQ202	0.000	
54	  C1	-13.258	56.953	8.597	C.3	2	KGQ202	0.000	
55	  N1	-12.287	52.130	2.335	N.3	2	KGQ202	0.000	
56	  O1	-16.033	62.233	7.822	O.3	2	KGQ202	0.000	
57	  C2	-12.290	57.869	9.322	C.3	2	KGQ202	0.000	
58	  O2	-16.156	60.545	9.772	O.2	2	KGQ202	0.000	
59	  C3	-12.829	53.790	10.293	C.3	2	KGQ202	0.000	
60	  O3	-18.090	60.409	8.039	O.3	2	KGQ202	0.000	
61	  C4	-12.695	54.316	6.815	C.2	2	KGQ202	0.000	
62	  O4	-11.876	54.738	10.819	O.3	2	KGQ202	0.000	
63	  C5	-13.425	54.481	9.100	C.3	2	KGQ202	0.000	
64	  O5	-12.483	51.812	-4.228	O.3	2	KGQ202	0.000	
65	  C6	-11.946	54.489	4.492	C.3	2	KGQ202	0.000	
66	  O6	-12.369	54.489	8.124	O.3	2	KGQ202	0.000	
67	  C7	-10.975	53.400	4.035	C.3	2	KGQ202	0.000	
68	  O7	-13.788	53.859	6.495	O.co2	2	KGQ202	0.000	
69	  C8	-11.694	55.845	3.820	C.3	2	KGQ202	0.000	
70	  O8	-9.646	53.864	4.260	O.3	2	KGQ202	0.000	
71	  C9	-12.469	56.980	4.505	C.2	2	KGQ202	0.000	
72	  O9	-14.793	52.529	1.806	O.2	2	KGQ202	0.000	
73	 C10	-11.787	58.004	5.156	C.2	2	KGQ202	0.000	
74	 O10	-13.258	54.435	1.744	O.2	2	KGQ202	0.000	
75	 C11	-13.853	57.004	4.465	C.2	2	KGQ202	0.000	
76	 O11	-11.550	56.972	10.182	O.3	2	KGQ202	0.000	
77	 C12	-12.471	59.042	5.770	C.2	2	KGQ202	0.000	
78	 C13	-14.541	58.041	5.091	C.2	2	KGQ202	0.000	
79	 C14	-13.861	59.068	5.742	C.2	2	KGQ202	0.000	
80	 C15	-15.505	59.510	7.271	C.3	2	KGQ202	0.000	
81	 C16	-14.805	62.716	8.397	C.3	2	KGQ202	0.000	
82	 C17	-14.628	64.212	8.142	C.3	2	KGQ202	0.000	
83	 C18	-18.962	61.039	7.104	C.3	2	KGQ202	0.000	
84	 C19	-19.942	60.016	6.507	C.3	2	KGQ202	0.000	
85	 C20	-11.129	53.014	2.561	C.3	2	KGQ202	0.000	
86	 C21	-12.830	51.667	3.624	C.3	2	KGQ202	0.000	
87	 C22	-12.782	50.143	3.744	C.3	2	KGQ202	0.000	
88	 C23	-13.114	52.658	-0.239	C.2	2	KGQ202	0.000	
89	 C24	-12.315	53.506	-0.999	C.2	2	KGQ202	0.000	
90	 C25	-12.093	53.226	-2.343	C.2	2	KGQ202	0.000	
91	 C26	-12.679	52.100	-2.919	C.2	2	KGQ202	0.000	
92	 C27	-13.478	51.255	-2.161	C.2	2	KGQ202	0.000	
93	 C28	-13.693	51.536	-0.821	C.2	2	KGQ202	0.000	
94	 C29	-11.461	49.589	3.232	C.3	2	KGQ202	0.000	
95	 C30	-13.939	49.483	3.006	C.3	2	KGQ202	0.000	
96	 C31	-13.372	50.754	-4.592	C.3	2	KGQ202	0.000	
97	 C32	-12.521	56.038	10.723	C.3	2	KGQ202	0.000	
98	   S	-13.400	52.967	1.462	S.O2	2	KGQ202	0.000	
@<TRIPOS>BOND
1 2 5 1
2 4 7 1
3 5 8 1
4 4 9 2
5 4 11 1
6 1 12 1
7 10 13 1
8 2 14 1
9 10 14 1
10 1 16 1
11 12 17 1
12 14 17 1
13 16 18 1
14 12 19 2
15 16 20 1
16 18 21 1
17 20 22 1
18 22 24 1
19 22 26 2
20 8 27 1
21 24 28 2
22 26 29 1
23 3 30 1
24 28 30 1
25 29 30 2
26 3 31 1
27 4 31 1
28 7 32 1
29 32 33 1
30 11 34 1
31 34 35 1
32 6 36 1
33 18 36 1
34 6 37 1
35 37 38 1
36 39 40 2
37 40 41 1
38 15 42 1
39 41 42 2
40 42 43 1
41 39 44 1
42 43 44 2
43 38 45 1
44 38 46 1
45 15 47 1
46 2 48 1
47 13 48 1
48 27 48 1
49 6 49 1
50 23 49 2
51 25 49 2
52 39 49 1
53 51 54 1
54 53 56 1
55 54 57 1
56 53 58 2
57 53 60 1
58 50 61 1
59 59 62 1
60 51 63 1
61 59 63 1
62 50 65 1
63 61 66 1
64 63 66 1
65 65 67 1
66 61 68 2
67 65 69 1
68 67 70 1
69 69 71 1
70 71 73 1
71 71 75 2
72 57 76 1
73 73 77 2
74 75 78 1
75 52 79 1
76 77 79 1
77 78 79 2
78 52 80 1
79 53 80 1
80 56 81 1
81 81 82 1
82 60 83 1
83 83 84 1
84 55 85 1
85 67 85 1
86 55 86 1
87 86 87 1
88 88 89 2
89 89 90 1
90 64 91 1
91 90 91 2
92 91 92 1
93 88 93 1
94 92 93 2
95 87 94 1
96 87 95 1
97 64 96 1
98 51 97 1
99 62 97 1
100 76 97 1
101 55 98 1
102 72 98 2
103 74 98 2
104 88 98 1
@<TRIPOS>SUBSTRUCTURE
1	KGQ201	1	GROUP	1 A	KGQ
2	KGQ202	50	GROUP	1 A	KGQ
