# created with PyMOL 3.1.6.1
@<TRIPOS>MOLECULE
6oxp
80 83 1                 
SMALL
USER_CHARGES
@<TRIPOS>ATOM
1	  C1	65.593	50.948	12.838	C.3	1	K2A103	0.000	
2	  O1	66.094	51.004	11.539	O.3	1	K2A103	0.000	
3	  C2	66.483	51.852	13.666	C.2	1	K2A103	0.000	
4	  C3	67.596	51.235	14.497	C.2	1	K2A103	0.000	
5	  C4	68.494	52.136	15.318	C.2	1	K2A103	0.000	
6	  C5	68.257	53.632	15.271	C.2	1	K2A103	0.000	
7	  C6	67.153	54.265	14.441	C.2	1	K2A103	0.000	
8	  C7	66.259	53.358	13.619	C.2	1	K2A103	0.000	
9	  S8	69.332	54.679	16.246	S.O2	1	K2A103	0.000	
10	  O9	68.552	55.743	16.873	O.2	1	K2A103	0.000	
11	 O10	69.916	53.916	17.352	O.2	1	K2A103	0.000	
12	 N11	70.527	55.290	15.197	N.3	1	K2A103	0.000	
13	 C12	71.247	54.260	14.462	C.3	1	K2A103	0.000	
14	 C13	72.746	54.537	14.488	C.3	1	K2A103	0.000	
15	 C14	73.266	54.497	15.924	C.3	1	K2A103	0.000	
16	 C15	73.450	53.488	13.623	C.3	1	K2A103	0.000	
17	 C16	70.206	56.538	14.532	C.3	1	K2A103	0.000	
18	 C17	71.096	57.658	15.068	C.3	1	K2A103	0.000	
19	 C18	73.366	52.090	14.232	C.3	1	K2A103	0.000	
20	 O18	70.973	58.780	14.242	O.3	1	K2A103	0.000	
21	 C19	70.709	58.039	16.498	C.3	1	K2A103	0.000	
22	 N20	71.674	59.000	16.979	N.pl3	1	K2A103	0.000	
23	 C21	72.674	58.660	17.956	C.2	1	K2A103	0.000	
24	 O22	72.697	57.597	18.502	O.co2	1	K2A103	0.000	
25	 O23	73.607	59.676	18.192	O.3	1	K2A103	0.000	
26	 C24	74.541	59.553	19.348	C.3	1	K2A103	0.000	
27	 C25	75.644	59.919	18.982	C.3	1	K2A103	0.000	
28	 O26	75.511	61.437	18.937	O.3	1	K2A103	0.000	
29	 C27	74.570	61.737	20.074	C.3	1	K2A103	0.000	
30	 O28	73.305	62.650	19.536	O.3	1	K2A103	0.000	
31	 C29	72.239	61.920	19.573	C.3	1	K2A103	0.000	
32	 C30	72.540	60.809	20.548	C.3	1	K2A103	0.000	
33	 C31	74.115	60.644	20.475	C.3	1	K2A103	0.000	
34	 C32	69.342	58.714	16.567	C.3	1	K2A103	0.000	
35	 C33	68.786	58.190	19.097	C.2	1	K2A103	0.000	
36	 C34	68.569	58.665	20.531	C.2	1	K2A103	0.000	
37	 C35	68.691	60.148	20.866	C.2	1	K2A103	0.000	
38	 C36	69.028	61.151	19.768	C.2	1	K2A103	0.000	
39	 C37	69.245	60.674	18.335	C.2	1	K2A103	0.000	
40	 C38	69.119	59.195	18.001	C.2	1	K2A103	0.000	
41	HN20	71.650	59.802	16.671	 H	1	K2A103	0.000	
42	 HO1	66.750	50.469	11.465	 H	1	K2A103	0.000	
43	HO18	71.677	59.254	14.301	 H	1	K2A103	0.000	
44	  H1	65.635	50.039	13.173	 H	1	K2A103	0.000	
45	  H3	67.719	50.313	14.507	 H	1	K2A103	0.000	
46	  H4	69.179	51.779	15.837	 H	1	K2A103	0.000	
47	  H6	67.033	55.187	14.432	 H	1	K2A103	0.000	
48	  H7	65.574	53.716	13.102	 H	1	K2A103	0.000	
49	 H12	71.074	53.396	14.868	 H	1	K2A103	0.000	
50	 H13	72.912	55.417	14.116	 H	1	K2A103	0.000	
51	 H14	72.791	53.813	16.421	 H	1	K2A103	0.000	
52	 H15	74.384	53.734	13.528	 H	1	K2A103	0.000	
53	 H16	69.276	56.759	14.696	 H	1	K2A103	0.000	
54	 H17	72.018	57.359	15.059	 H	1	K2A103	0.000	
55	 H18	73.947	51.488	13.741	 H	1	K2A103	0.000	
56	 H19	70.718	57.251	17.064	 H	1	K2A103	0.000	
57	 H24	74.563	58.652	19.709	 H	1	K2A103	0.000	
58	 H25	76.328	59.654	19.617	 H	1	K2A103	0.000	
59	 H1A	64.678	51.270	12.858	 H	1	K2A103	0.000	
60	 H27	75.037	62.193	20.792	 H	1	K2A103	0.000	
61	 H29	71.486	62.444	19.886	 H	1	K2A103	0.000	
62	 H30	72.268	61.064	21.444	 H	1	K2A103	0.000	
63	 H31	74.482	60.412	21.342	 H	1	K2A103	0.000	
64	 H32	68.651	58.079	16.323	 H	1	K2A103	0.000	
65	 H33	68.712	57.286	18.892	 H	1	K2A103	0.000	
66	 H34	68.363	58.052	21.199	 H	1	K2A103	0.000	
67	 H35	68.558	60.441	21.739	 H	1	K2A103	0.000	
68	 H36	69.102	62.055	19.972	 H	1	K2A103	0.000	
69	 H37	69.450	61.287	17.666	 H	1	K2A103	0.000	
70	H12A	70.940	54.249	13.542	 H	1	K2A103	0.000	
71	H14A	73.123	55.360	16.344	 H	1	K2A103	0.000	
72	H14B	74.214	54.294	15.919	 H	1	K2A103	0.000	
73	H15A	73.037	53.475	12.746	 H	1	K2A103	0.000	
74	H16A	70.351	56.440	13.578	 H	1	K2A103	0.000	
75	H18A	73.646	52.124	15.160	 H	1	K2A103	0.000	
76	H18B	72.452	51.770	14.181	 H	1	K2A103	0.000	
77	H25A	75.840	59.570	18.099	 H	1	K2A103	0.000	
78	H29A	72.057	61.551	18.694	 H	1	K2A103	0.000	
79	H30A	72.101	59.989	20.273	 H	1	K2A103	0.000	
80	H32A	69.320	59.471	15.961	 H	1	K2A103	0.000	
@<TRIPOS>BOND
1 1 2 1
2 1 3 1
3 3 4 2
4 4 5 1
5 5 6 2
6 6 7 1
7 3 8 1
8 7 8 2
9 6 9 1
10 9 10 2
11 9 11 2
12 9 12 1
13 12 13 1
14 13 14 1
15 14 15 1
16 14 16 1
17 12 17 1
18 17 18 1
19 16 19 1
20 18 20 1
21 18 21 1
22 21 22 1
23 22 23 1
24 23 24 2
25 23 25 1
26 25 26 1
27 26 27 1
28 27 28 1
29 28 29 1
30 29 30 1
31 30 31 1
32 31 32 1
33 26 33 1
34 29 33 1
35 32 33 1
36 21 34 1
37 35 36 2
38 36 37 1
39 37 38 2
40 38 39 1
41 34 40 1
42 35 40 1
43 39 40 2
44 22 41 1
45 2 42 1
46 20 43 1
47 1 44 1
48 4 45 1
49 5 46 1
50 7 47 1
51 8 48 1
52 13 49 1
53 14 50 1
54 15 51 1
55 16 52 1
56 17 53 1
57 18 54 1
58 19 55 1
59 21 56 1
60 26 57 1
61 27 58 1
62 1 59 1
63 29 60 1
64 31 61 1
65 32 62 1
66 33 63 1
67 34 64 1
68 35 65 1
69 36 66 1
70 37 67 1
71 38 68 1
72 39 69 1
73 13 70 1
74 15 71 1
75 15 72 1
76 16 73 1
77 17 74 1
78 19 75 1
79 19 76 1
80 27 77 1
81 31 78 1
82 32 79 1
83 34 80 1
@<TRIPOS>SUBSTRUCTURE
1	K2A103	1	GROUP	1 A	K2A
