# created with PyMOL 3.1.6.1
@<TRIPOS>MOLECULE
6d0e
84 90 1                 
SMALL
USER_CHARGES
@<TRIPOS>ATOM
1	 C01	-8.592	15.402	-5.838	C.3	1	FQ1500	0.000	
2	 C01	-8.969	14.935	5.859	C.3	1	FQ1500	0.000	
3	 O01	-8.319	17.401	-7.269	O.3	1	FQ1500	0.000	
4	 O01	-10.855	16.270	6.770	O.3	1	FQ1500	0.000	
5	 C02	-9.244	16.624	-6.535	C.3	1	FQ1500	0.000	
6	 C02	-9.514	15.900	6.953	C.3	1	FQ1500	0.000	
7	  C2	-10.462	15.520	7.279	C.2	1	FQ1500	0.000	
8	  C2	-8.242	16.803	-7.150	C.2	1	FQ1500	0.000	
9	  C3	-9.780	16.596	6.677	C.2	1	FQ1500	0.000	
10	  C3	-9.521	16.767	-6.561	C.2	1	FQ1500	0.000	
11	 O03	-10.891	15.552	8.562	O.3	1	FQ1500	0.000	
12	 O03	-8.029	17.212	-8.438	O.3	1	FQ1500	0.000	
13	 C04	-10.773	14.365	9.353	C.3	1	FQ1500	0.000	
14	 C04	-6.781	17.815	-8.788	C.3	1	FQ1500	0.000	
15	  C4	-9.342	16.491	5.354	C.2	1	FQ1500	0.000	
16	  C4	-9.677	16.335	-5.232	C.2	1	FQ1500	0.000	
17	  C5	-9.514	15.366	4.526	C.2	1	FQ1500	0.000	
18	  C5	-8.628	15.909	-4.399	C.2	1	FQ1500	0.000	
19	 C06	-5.573	17.071	0.013	C.2	1	FQ1500	0.000	
20	 C06	-11.985	13.466	0.092	C.2	1	FQ1500	0.000	
21	  C6	-10.209	14.316	5.158	C.2	1	FQ1500	0.000	
22	  C6	-7.367	15.979	-5.017	C.2	1	FQ1500	0.000	
23	 C07	-6.298	18.205	-0.372	C.2	1	FQ1500	0.000	
24	 C07	-12.632	14.627	0.522	C.2	1	FQ1500	0.000	
25	  C7	-10.664	14.365	6.482	C.2	1	FQ1500	0.000	
26	  C7	-7.160	16.401	-6.335	C.2	1	FQ1500	0.000	
27	 C08	-5.747	19.066	-1.334	C.2	1	FQ1500	0.000	
28	 C08	-13.668	14.521	1.459	C.2	1	FQ1500	0.000	
29	  S8	-8.964	15.290	2.801	S.O2	1	FQ1500	0.000	
30	  S8	-8.843	15.398	-2.686	S.O2	1	FQ1500	0.000	
31	 C09	-3.743	17.666	-1.488	C.2	1	FQ1500	0.000	
32	 C09	-13.418	12.085	1.501	C.2	1	FQ1500	0.000	
33	  O9	-7.839	16.161	2.642	O.2	1	FQ1500	0.000	
34	  O9	-10.171	14.893	-2.526	O.2	1	FQ1500	0.000	
35	 O10	-8.665	13.958	2.414	O.2	1	FQ1500	0.000	
36	 O10	-7.853	14.459	-2.298	O.2	1	FQ1500	0.000	
37	 N11	-10.276	15.895	1.852	N.3	1	FQ1500	0.000	
38	 N11	-8.675	16.834	-1.720	N.3	1	FQ1500	0.000	
39	 C12	-11.610	15.238	2.007	C.3	1	FQ1500	0.000	
40	 C12	-7.403	17.648	-1.793	C.3	1	FQ1500	0.000	
41	 C13	-12.167	14.375	0.829	C.3	1	FQ1500	0.000	
42	 C13	-6.392	17.593	-0.590	C.3	1	FQ1500	0.000	
43	 C14	-13.627	14.748	0.559	C.3	1	FQ1500	0.000	
44	 C14	-5.876	18.999	-0.240	C.3	1	FQ1500	0.000	
45	 C15	-11.336	14.482	-0.467	C.3	1	FQ1500	0.000	
46	 C15	-6.954	16.907	0.661	C.3	1	FQ1500	0.000	
47	 C16	-10.417	17.408	1.625	C.3	1	FQ1500	0.000	
48	 C16	-9.891	17.724	-1.500	C.3	1	FQ1500	0.000	
49	 C17	-10.137	17.855	0.132	C.3	1	FQ1500	0.000	
50	 C17	-10.376	17.738	-0.003	C.3	1	FQ1500	0.000	
51	 O18	-10.268	19.227	0.042	O.3	1	FQ1500	0.000	
52	 O18	-11.487	18.541	0.092	O.3	1	FQ1500	0.000	
53	 C19	-8.697	17.498	-0.360	C.3	1	FQ1500	0.000	
54	 C19	-10.786	16.335	0.514	C.3	1	FQ1500	0.000	
55	 N20	-8.647	17.589	-1.810	N.pl3	1	FQ1500	0.000	
56	 N20	-10.799	16.361	1.971	N.pl3	1	FQ1500	0.000	
57	 C21	-8.236	16.577	-2.669	C.2	1	FQ1500	0.000	
58	 C21	-10.197	15.432	2.802	C.2	1	FQ1500	0.000	
59	 O22	-8.031	15.430	-2.279	O.co2	1	FQ1500	0.000	
60	 O22	-9.302	14.687	2.413	O.co2	1	FQ1500	0.000	
61	 O23	-8.054	16.848	-3.994	O.3	1	FQ1500	0.000	
62	 O23	-10.595	15.338	4.090	O.3	1	FQ1500	0.000	
63	 C24	-7.509	15.904	-4.893	C.3	1	FQ1500	0.000	
64	 C24	-10.106	14.368	4.981	C.3	1	FQ1500	0.000	
65	 C27	-7.074	17.736	-6.675	C.3	1	FQ1500	0.000	
66	 C27	-11.819	15.254	6.644	C.3	1	FQ1500	0.000	
67	 O28	-7.152	18.923	-5.939	O.3	1	FQ1500	0.000	
68	 O28	-12.930	15.739	5.933	O.3	1	FQ1500	0.000	
69	 C29	-6.127	18.988	-4.970	C.3	1	FQ1500	0.000	
70	 C29	-13.453	14.785	5.027	C.3	1	FQ1500	0.000	
71	 C30	-5.516	17.556	-4.897	C.3	1	FQ1500	0.000	
72	 C30	-12.557	13.531	5.149	C.3	1	FQ1500	0.000	
73	 C31	-6.436	16.657	-5.735	C.3	1	FQ1500	0.000	
74	 C31	-11.294	13.984	5.902	C.3	1	FQ1500	0.000	
75	 C32	-7.635	18.437	0.216	C.3	1	FQ1500	0.000	
76	 C32	-12.174	15.934	0.002	C.3	1	FQ1500	0.000	
77	 C33	-4.306	16.800	-0.531	C.2	1	FQ1500	0.000	
78	 C33	-12.367	12.201	0.564	C.2	1	FQ1500	0.000	
79	 C34	-4.474	18.809	-1.892	C.2	1	FQ1500	0.000	
80	 C34	-14.071	13.261	1.949	C.2	1	FQ1500	0.000	
81	 F01	-3.653	15.752	-0.154	 F	1	FQ1500	0.000	
82	 F01	-11.749	11.151	0.132	 F	1	FQ1500	0.000	
83	 F02	-3.965	19.612	-2.771	 F	1	FQ1500	0.000	
84	 F02	-15.033	13.176	2.812	 F	1	FQ1500	0.000	
@<TRIPOS>BOND
1 1 5 1
2 3 5 1
3 2 6 1
4 4 6 1
5 7 9 1
6 8 10 1
7 7 11 1
8 8 12 1
9 11 13 1
10 12 14 1
11 9 15 2
12 10 16 2
13 15 17 1
14 16 18 1
15 17 21 2
16 18 22 2
17 19 23 1
18 20 24 1
19 7 25 2
20 21 25 1
21 8 26 2
22 22 26 1
23 23 27 2
24 24 28 2
25 17 29 1
26 18 30 1
27 29 33 2
28 30 34 2
29 29 35 2
30 30 36 2
31 29 37 1
32 30 38 1
33 37 39 1
34 38 40 1
35 39 41 1
36 40 42 1
37 41 43 1
38 42 44 1
39 41 45 1
40 42 46 1
41 37 47 1
42 38 48 1
43 47 49 1
44 48 50 1
45 49 51 1
46 50 52 1
47 49 53 1
48 50 54 1
49 53 55 1
50 54 56 1
51 55 57 1
52 56 58 1
53 57 59 2
54 58 60 2
55 57 61 1
56 58 62 1
57 1 63 1
58 61 63 1
59 2 64 1
60 62 64 1
61 3 65 1
62 4 66 1
63 65 67 1
64 66 68 1
65 67 69 1
66 68 70 1
67 69 71 1
68 70 72 1
69 63 73 1
70 65 73 1
71 71 73 1
72 64 74 1
73 66 74 1
74 72 74 1
75 23 75 1
76 53 75 1
77 24 76 1
78 54 76 1
79 19 77 2
80 31 77 1
81 20 78 2
82 32 78 1
83 27 79 1
84 31 79 2
85 28 80 1
86 32 80 2
87 77 81 1
88 78 82 1
89 79 83 1
90 80 84 1
@<TRIPOS>SUBSTRUCTURE
1	FQ1500	1	GROUP	1 B	FQ1
