# created with PyMOL 3.1.6.1
@<TRIPOS>MOLECULE
4drh
130 136 2               
SMALL
USER_CHARGES
@<TRIPOS>ATOM
1	  C1	-8.483	19.480	-3.542	C.2	1	RAP201	0.000	
2	  O1	-7.247	19.003	-2.940	O.3	1	RAP201	0.000	
3	  C2	-9.751	18.706	-3.284	C.3	1	RAP201	0.000	
4	  O2	-8.463	20.475	-4.250	O.co2	1	RAP201	0.000	
5	  C3	-10.893	19.603	-2.792	C.3	1	RAP201	0.000	
6	  O3	-9.746	16.028	-3.854	O.2	1	RAP201	0.000	
7	  C4	-10.663	20.121	-1.364	C.3	1	RAP201	0.000	
8	  O4	-10.437	14.763	-1.314	O.2	1	RAP201	0.000	
9	  C5	-10.389	18.972	-0.386	C.3	1	RAP201	0.000	
10	  O5	-7.565	15.643	-0.344	O.3	1	RAP201	0.000	
11	  C6	-9.225	18.117	-0.908	C.3	1	RAP201	0.000	
12	  O6	-8.244	13.405	-0.764	O.3	1	RAP201	0.000	
13	  N7	-9.522	17.630	-2.286	N.pl3	1	RAP201	0.000	
14	  O7	-5.216	15.603	3.133	O.3	1	RAP201	0.000	
15	  C8	-9.569	16.352	-2.700	C.2	1	RAP201	0.000	
16	  O8	-1.144	26.258	-1.639	O.2	1	RAP201	0.000	
17	  C9	-9.419	15.256	-1.746	C.2	1	RAP201	0.000	
18	  O9	-0.439	24.650	-3.704	O.3	1	RAP201	0.000	
19	 C10	-8.061	14.713	-1.317	C.3	1	RAP201	0.000	
20	 O10	-3.261	24.476	-3.219	O.3	1	RAP201	0.000	
21	 C11	-7.049	14.584	-2.469	C.3	1	RAP201	0.000	
22	 O11	-6.776	21.095	-0.936	O.2	1	RAP201	0.000	
23	 C12	-5.664	14.245	-1.900	C.3	1	RAP201	0.000	
24	 O12	-2.297	23.509	-7.562	O.3	1	RAP201	0.000	
25	 C13	-5.225	15.244	-0.825	C.3	1	RAP201	0.000	
26	 O13	-4.812	24.286	-8.517	O.3	1	RAP201	0.000	
27	 C14	-6.289	15.405	0.261	C.3	1	RAP201	0.000	
28	 C15	-6.072	16.643	1.122	C.3	1	RAP201	0.000	
29	 C16	-4.883	16.495	2.063	C.3	1	RAP201	0.000	
30	 C17	-4.506	17.888	2.511	C.2	1	RAP201	0.000	
31	 C18	-3.354	18.419	2.000	C.2	1	RAP201	0.000	
32	 C19	-2.842	19.761	2.299	C.2	1	RAP201	0.000	
33	 C20	-1.669	20.181	1.806	C.2	1	RAP201	0.000	
34	 C21	-1.210	21.539	2.116	C.2	1	RAP201	0.000	
35	 C22	-0.160	22.093	1.499	C.2	1	RAP201	0.000	
36	 C23	0.301	23.505	1.802	C.3	1	RAP201	0.000	
37	 C24	0.175	24.446	0.586	C.3	1	RAP201	0.000	
38	 C25	-1.256	24.602	0.046	C.3	1	RAP201	0.000	
39	 C26	-1.160	25.064	-1.398	C.2	1	RAP201	0.000	
40	 C27	-1.005	24.065	-2.532	C.3	1	RAP201	0.000	
41	 C28	-2.304	23.431	-2.992	C.3	1	RAP201	0.000	
42	 C29	-2.767	22.378	-2.013	C.2	1	RAP201	0.000	
43	 C30	-3.943	22.553	-1.363	C.2	1	RAP201	0.000	
44	 C31	-4.506	21.564	-0.354	C.3	1	RAP201	0.000	
45	 C32	-5.605	20.798	-1.061	C.2	1	RAP201	0.000	
46	 C33	-5.224	19.675	-1.991	C.3	1	RAP201	0.000	
47	 C34	-6.068	19.708	-3.274	C.3	1	RAP201	0.000	
48	 C35	-5.419	19.002	-4.475	C.3	1	RAP201	0.000	
49	 C36	-4.241	19.774	-5.049	C.3	1	RAP201	0.000	
50	 C37	-4.562	21.159	-5.627	C.3	1	RAP201	0.000	
51	 C38	-3.276	21.672	-6.308	C.3	1	RAP201	0.000	
52	 C39	-3.484	23.071	-6.900	C.3	1	RAP201	0.000	
53	 C40	-4.595	22.995	-7.947	C.3	1	RAP201	0.000	
54	 C41	-5.916	22.439	-7.391	C.3	1	RAP201	0.000	
55	 C42	-5.736	21.136	-6.616	C.3	1	RAP201	0.000	
56	 C43	-7.512	13.534	-3.492	C.3	1	RAP201	0.000	
57	 C44	-5.453	18.635	3.455	C.3	1	RAP201	0.000	
58	 C45	1.774	23.468	2.200	C.3	1	RAP201	0.000	
59	 C46	-2.089	25.563	0.902	C.3	1	RAP201	0.000	
60	 C47	-1.885	21.174	-1.752	C.3	1	RAP201	0.000	
61	 C48	-4.981	22.299	0.898	C.3	1	RAP201	0.000	
62	 C49	-4.983	17.576	-4.126	C.3	1	RAP201	0.000	
63	 C50	-4.041	15.167	3.812	C.3	1	RAP201	0.000	
64	 C51	0.960	24.943	-3.641	C.3	1	RAP201	0.000	
65	 C52	-1.355	24.212	-6.759	C.3	1	RAP201	0.000	
66	  C1	25.735	40.002	1.505	C.2	2	RAP201	0.000	
67	  O1	25.678	38.706	0.859	O.3	2	RAP201	0.000	
68	  C2	26.985	40.817	1.290	C.3	2	RAP201	0.000	
69	  O2	24.815	40.404	2.216	O.co2	2	RAP201	0.000	
70	  C3	26.630	42.202	0.717	C.3	2	RAP201	0.000	
71	  O3	29.194	39.566	2.225	O.2	2	RAP201	0.000	
72	  C4	26.240	42.103	-0.768	C.3	2	RAP201	0.000	
73	  O4	30.988	39.478	-0.250	O.2	2	RAP201	0.000	
74	  C5	27.404	41.495	-1.536	C.3	2	RAP201	0.000	
75	  O5	29.092	37.259	-1.222	O.3	2	RAP201	0.000	
76	  C6	27.689	40.085	-1.023	C.3	2	RAP201	0.000	
77	  O6	31.289	36.912	-0.514	O.3	2	RAP201	0.000	
78	  N7	27.982	40.117	0.427	N.pl3	2	RAP201	0.000	
79	  O7	28.256	34.846	-4.773	O.3	2	RAP201	0.000	
80	  C8	29.043	39.534	1.020	C.2	2	RAP201	0.000	
81	  O8	16.688	36.523	-1.364	O.2	2	RAP201	0.000	
82	  C9	30.056	38.835	0.205	C.2	2	RAP201	0.000	
83	  O9	17.382	35.197	0.972	O.3	2	RAP201	0.000	
84	 C10	29.992	37.352	-0.115	C.3	2	RAP201	0.000	
85	 O10	18.962	37.572	0.577	O.3	2	RAP201	0.000	
86	 C11	29.530	36.464	1.053	C.3	2	RAP201	0.000	
87	 O11	23.639	39.169	-1.227	O.2	2	RAP201	0.000	
88	 C12	29.119	35.063	0.568	C.3	2	RAP201	0.000	
89	 O12	18.936	36.536	5.074	O.3	2	RAP201	0.000	
90	 C13	28.210	35.089	-0.663	C.3	2	RAP201	0.000	
91	 O13	19.302	39.166	5.804	O.3	2	RAP201	0.000	
92	 C14	28.766	35.973	-1.778	C.3	2	RAP201	0.000	
93	 C15	27.726	36.230	-2.882	C.3	2	RAP201	0.000	
94	 C16	27.311	35.021	-3.725	C.3	2	RAP201	0.000	
95	 C17	25.945	35.256	-4.314	C.2	2	RAP201	0.000	
96	 C18	24.929	34.488	-3.887	C.2	2	RAP201	0.000	
97	 C19	23.569	34.643	-4.394	C.2	2	RAP201	0.000	
98	 C20	22.553	33.973	-3.851	C.2	2	RAP201	0.000	
99	 C21	21.215	34.162	-4.394	C.2	2	RAP201	0.000	
100	 C22	20.182	33.537	-3.827	C.2	2	RAP201	0.000	
101	 C23	18.764	33.687	-4.329	C.3	2	RAP201	0.000	
102	 C24	17.874	34.365	-3.281	C.3	2	RAP201	0.000	
103	 C25	18.425	35.663	-2.703	C.3	2	RAP201	0.000	
104	 C26	17.755	35.906	-1.374	C.2	2	RAP201	0.000	
105	 C27	18.353	35.360	-0.080	C.3	2	RAP201	0.000	
106	 C28	19.463	36.240	0.493	C.3	2	RAP201	0.000	
107	 C29	20.736	36.147	-0.326	C.2	2	RAP201	0.000	
108	 C30	21.152	37.205	-1.052	C.2	2	RAP201	0.000	
109	 C31	22.403	37.253	-1.919	C.3	2	RAP201	0.000	
110	 C32	23.482	37.948	-1.131	C.2	2	RAP201	0.000	
111	 C33	24.337	37.119	-0.195	C.3	2	RAP201	0.000	
112	 C34	24.522	37.906	1.094	C.3	2	RAP201	0.000	
113	 C35	24.675	37.070	2.385	C.3	2	RAP201	0.000	
114	 C36	23.391	36.387	2.882	C.3	2	RAP201	0.000	
115	 C37	22.240	37.292	3.319	C.3	2	RAP201	0.000	
116	 C38	21.134	36.445	3.968	C.3	2	RAP201	0.000	
117	 C39	19.930	37.300	4.387	C.3	2	RAP201	0.000	
118	 C40	20.398	38.345	5.386	C.3	2	RAP201	0.000	
119	 C41	21.539	39.195	4.836	C.3	2	RAP201	0.000	
120	 C42	22.703	38.359	4.297	C.3	2	RAP201	0.000	
121	 C43	30.575	36.360	2.163	C.3	2	RAP201	0.000	
122	 C44	25.750	36.343	-5.354	C.3	2	RAP201	0.000	
123	 C45	18.194	32.313	-4.685	C.3	2	RAP201	0.000	
124	 C46	18.211	36.849	-3.655	C.3	2	RAP201	0.000	
125	 C47	21.485	34.842	-0.321	C.3	2	RAP201	0.000	
126	 C48	22.117	38.031	-3.204	C.3	2	RAP201	0.000	
127	 C49	25.822	36.061	2.301	C.3	2	RAP201	0.000	
128	 C50	28.246	33.533	-5.334	C.3	2	RAP201	0.000	
129	 C51	16.248	34.375	0.669	C.3	2	RAP201	0.000	
130	 C52	17.965	35.904	4.237	C.3	2	RAP201	0.000	
@<TRIPOS>BOND
1 1 2 1
2 1 3 1
3 1 4 2
4 3 5 1
5 5 7 1
6 7 9 1
7 9 11 1
8 3 13 1
9 11 13 1
10 6 15 2
11 13 15 1
12 8 17 2
13 15 17 1
14 10 19 1
15 12 19 1
16 17 19 1
17 19 21 1
18 21 23 1
19 23 25 1
20 10 27 1
21 25 27 1
22 27 28 1
23 14 29 1
24 28 29 1
25 29 30 1
26 30 31 2
27 31 32 1
28 32 33 2
29 33 34 1
30 34 35 2
31 35 36 1
32 36 37 1
33 37 38 1
34 16 39 2
35 38 39 1
36 18 40 1
37 39 40 1
38 20 41 1
39 40 41 1
40 41 42 1
41 42 43 2
42 43 44 1
43 22 45 2
44 44 45 1
45 45 46 1
46 2 47 1
47 46 47 1
48 47 48 1
49 48 49 1
50 49 50 1
51 50 51 1
52 24 52 1
53 51 52 1
54 26 53 1
55 52 53 1
56 53 54 1
57 50 55 1
58 54 55 1
59 21 56 1
60 30 57 1
61 36 58 1
62 38 59 1
63 42 60 1
64 44 61 1
65 48 62 1
66 14 63 1
67 18 64 1
68 24 65 1
69 66 67 1
70 66 68 1
71 66 69 2
72 68 70 1
73 70 72 1
74 72 74 1
75 74 76 1
76 68 78 1
77 76 78 1
78 71 80 2
79 78 80 1
80 73 82 2
81 80 82 1
82 75 84 1
83 77 84 1
84 82 84 1
85 84 86 1
86 86 88 1
87 88 90 1
88 75 92 1
89 90 92 1
90 92 93 1
91 79 94 1
92 93 94 1
93 94 95 1
94 95 96 2
95 96 97 1
96 97 98 2
97 98 99 1
98 99 100 2
99 100 101 1
100 101 102 1
101 102 103 1
102 81 104 2
103 103 104 1
104 83 105 1
105 104 105 1
106 85 106 1
107 105 106 1
108 106 107 1
109 107 108 2
110 108 109 1
111 87 110 2
112 109 110 1
113 110 111 1
114 67 112 1
115 111 112 1
116 112 113 1
117 113 114 1
118 114 115 1
119 115 116 1
120 89 117 1
121 116 117 1
122 91 118 1
123 117 118 1
124 118 119 1
125 115 120 1
126 119 120 1
127 86 121 1
128 95 122 1
129 101 123 1
130 103 124 1
131 107 125 1
132 109 126 1
133 113 127 1
134 79 128 1
135 83 129 1
136 89 130 1
@<TRIPOS>SUBSTRUCTURE
1	RAP201	1	GROUP	1 A	RAP
2	RAP201	66	GROUP	1 D	RAP
