# created with PyMOL 3.1.6.1
@<TRIPOS>MOLECULE
2i4x
49 52 1                 
SMALL
USER_CHARGES
@<TRIPOS>ATOM
1	   N	13.473	22.109	17.817	N.pl3	1	KGQ300	0.000	
2	   C	11.741	17.983	18.363	C.3	1	KGQ300	0.000	
3	   O	12.305	18.934	12.446	O.3	1	KGQ300	0.000	
4	   P	11.486	16.444	11.998	P.3	1	KGQ300	0.000	
5	  C1	11.238	18.522	16.996	C.3	1	KGQ300	0.000	
6	  N1	17.223	24.348	17.323	N.3	1	KGQ300	0.000	
7	  O1	11.067	16.742	10.488	O.3	1	KGQ300	0.000	
8	  C2	10.075	19.449	17.384	C.3	1	KGQ300	0.000	
9	  O2	10.554	15.432	12.581	O.2	1	KGQ300	0.000	
10	  C3	12.209	18.794	20.565	C.3	1	KGQ300	0.000	
11	  O3	12.974	15.860	11.993	O.3	1	KGQ300	0.000	
12	  C4	13.728	20.821	18.103	C.2	1	KGQ300	0.000	
13	  O4	10.806	18.950	20.333	O.3	1	KGQ300	0.000	
14	  C5	12.742	18.882	19.122	C.3	1	KGQ300	0.000	
15	  O5	20.821	29.117	14.321	O.3	1	KGQ300	0.000	
16	  C6	14.413	22.956	17.104	C.3	1	KGQ300	0.000	
17	  O6	12.676	20.278	18.752	O.3	1	KGQ300	0.000	
18	  C7	14.788	24.150	18.026	C.3	1	KGQ300	0.000	
19	  O7	14.764	20.230	17.802	O.co2	1	KGQ300	0.000	
20	  C8	13.730	23.423	15.778	C.3	1	KGQ300	0.000	
21	  O8	13.640	24.983	18.164	O.3	1	KGQ300	0.000	
22	  C9	13.344	22.238	14.887	C.2	1	KGQ300	0.000	
23	  O9	16.717	23.916	14.838	O.2	1	KGQ300	0.000	
24	 C10	12.019	21.751	14.876	C.2	1	KGQ300	0.000	
25	 O10	18.775	23.030	15.819	O.2	1	KGQ300	0.000	
26	 C11	14.306	21.616	14.071	C.2	1	KGQ300	0.000	
27	 O11	9.441	18.675	18.408	O.3	1	KGQ300	0.000	
28	 C12	11.667	20.653	14.066	C.2	1	KGQ300	0.000	
29	 C13	13.961	20.522	13.262	C.2	1	KGQ300	0.000	
30	 C14	12.641	20.032	13.254	C.2	1	KGQ300	0.000	
31	 C15	11.411	17.964	13.005	C.3	1	KGQ300	0.000	
32	 C16	9.808	17.267	10.070	C.3	1	KGQ300	0.000	
33	 C17	9.822	17.387	8.529	C.3	1	KGQ300	0.000	
34	 C18	13.585	15.194	10.874	C.3	1	KGQ300	0.000	
35	 C19	15.026	14.780	11.260	C.3	1	KGQ300	0.000	
36	 C20	15.924	25.066	17.475	C.3	1	KGQ300	0.000	
37	 C21	18.280	24.618	18.346	C.3	1	KGQ300	0.000	
38	 C22	18.198	23.768	19.657	C.3	1	KGQ300	0.000	
39	 C23	18.699	25.600	15.327	C.2	1	KGQ300	0.000	
40	 C24	18.036	26.685	14.730	C.2	1	KGQ300	0.000	
41	 C25	18.744	27.852	14.399	C.2	1	KGQ300	0.000	
42	 C26	20.124	27.952	14.653	C.2	1	KGQ300	0.000	
43	 C27	20.788	26.863	15.249	C.2	1	KGQ300	0.000	
44	 C28	20.082	25.700	15.579	C.2	1	KGQ300	0.000	
45	 C29	17.032	22.747	19.611	C.3	1	KGQ300	0.000	
46	 C30	19.513	22.977	19.834	C.3	1	KGQ300	0.000	
47	 C31	22.184	29.321	14.722	C.3	1	KGQ300	0.000	
48	 C32	10.462	18.091	19.243	C.3	1	KGQ300	0.000	
49	   S	17.812	24.105	15.762	S.O2	1	KGQ300	0.000	
@<TRIPOS>BOND
1 2 5 1
2 4 7 1
3 5 8 1
4 4 9 2
5 4 11 1
6 1 12 1
7 10 13 1
8 2 14 1
9 10 14 1
10 1 16 1
11 12 17 1
12 14 17 1
13 16 18 1
14 12 19 2
15 16 20 1
16 18 21 1
17 20 22 1
18 22 24 1
19 22 26 2
20 8 27 1
21 24 28 2
22 26 29 1
23 3 30 1
24 28 30 1
25 29 30 2
26 3 31 1
27 4 31 1
28 7 32 1
29 32 33 1
30 11 34 1
31 34 35 1
32 6 36 1
33 18 36 1
34 6 37 1
35 37 38 1
36 39 40 2
37 40 41 1
38 15 42 1
39 41 42 2
40 42 43 1
41 39 44 1
42 43 44 2
43 38 45 1
44 38 46 1
45 15 47 1
46 2 48 1
47 13 48 1
48 27 48 1
49 6 49 1
50 23 49 2
51 25 49 2
52 39 49 1
@<TRIPOS>SUBSTRUCTURE
1	KGQ300	1	GROUP	1 B	KGQ
