# created with PyMOL 3.1.6.1
@<TRIPOS>MOLECULE
2fdd
96 106 1                
SMALL
USER_CHARGES
@<TRIPOS>ATOM
1	  C1	19.112	16.455	-2.668	C.3	1	385501	0.000	
2	  C1	11.231	8.574	2.620	C.3	1	385501	0.000	
3	  C2	19.116	17.832	-3.321	C.3	1	385501	0.000	
4	  C2	9.867	8.614	3.297	C.3	1	385501	0.000	
5	  C3	17.858	15.745	-3.283	C.3	1	385501	0.000	
6	  C3	11.989	9.808	3.215	C.3	1	385501	0.000	
7	  C4	19.173	16.754	-1.138	C.3	1	385501	0.000	
8	  C4	10.902	8.516	1.099	C.3	1	385501	0.000	
9	  O5	18.113	17.838	-4.343	O.3	1	385501	0.000	
10	  O5	9.915	9.618	4.307	O.3	1	385501	0.000	
11	  O6	18.829	18.825	-2.317	O.3	1	385501	0.000	
12	  O6	8.864	8.926	2.310	O.3	1	385501	0.000	
13	  C7	17.705	16.476	-4.613	C.3	1	385501	0.000	
14	  C7	11.297	9.964	4.563	C.3	1	385501	0.000	
15	  O8	16.651	15.891	-2.502	O.3	1	385501	0.000	
16	  O8	11.841	11.027	2.450	O.3	1	385501	0.000	
17	  C9	18.542	18.180	-1.065	C.3	1	385501	0.000	
18	  C9	9.489	9.180	1.044	C.3	1	385501	0.000	
19	 C10	16.136	14.953	-1.671	C.2	1	385501	0.000	
20	 C10	12.770	11.544	1.605	C.2	1	385501	0.000	
21	 N11	15.273	15.328	-0.726	N.pl3	1	385501	0.000	
22	 N11	12.383	12.416	0.673	N.pl3	1	385501	0.000	
23	 O12	16.463	13.788	-1.789	O.co2	1	385501	0.000	
24	 O12	13.934	11.211	1.701	O.co2	1	385501	0.000	
25	 C13	14.563	14.558	0.301	C.3	1	385501	0.000	
26	 C13	13.135	13.131	-0.363	C.3	1	385501	0.000	
27	 C14	14.904	15.185	1.695	C.3	1	385501	0.000	
28	 C14	12.494	12.785	-1.755	C.3	1	385501	0.000	
29	 C15	13.050	14.433	-0.053	C.3	1	385501	0.000	
30	 C15	13.239	14.640	0.005	C.3	1	385501	0.000	
31	 C16	16.319	15.478	2.019	C.2	1	385501	0.000	
32	 C16	12.200	11.365	-2.063	C.2	1	385501	0.000	
33	 C17	12.278	13.350	0.724	C.3	1	385501	0.000	
34	 C17	14.321	15.433	-0.748	C.3	1	385501	0.000	
35	 O18	12.442	15.683	0.164	O.3	1	385501	0.000	
36	 O18	11.980	15.235	-0.203	O.3	1	385501	0.000	
37	 C19	16.765	16.821	2.171	C.2	1	385501	0.000	
38	 C19	10.858	10.912	-2.223	C.2	1	385501	0.000	
39	 C20	17.254	14.401	2.162	C.2	1	385501	0.000	
40	 C20	13.278	10.430	-2.179	C.2	1	385501	0.000	
41	 N21	12.779	12.037	0.392	N.3	1	385501	0.000	
42	 N21	15.635	14.938	-0.415	N.3	1	385501	0.000	
43	 C22	18.143	17.097	2.459	C.2	1	385501	0.000	
44	 C22	10.589	9.525	-2.491	C.2	1	385501	0.000	
45	 C23	18.608	14.673	2.445	C.2	1	385501	0.000	
46	 C23	13.015	9.072	-2.441	C.2	1	385501	0.000	
47	 S24	13.607	11.174	1.629	S.O2	1	385501	0.000	
48	 S24	16.504	14.100	-1.648	S.O2	1	385501	0.000	
49	 C25	11.963	11.237	-0.519	C.3	1	385501	0.000	
50	 C25	16.424	15.754	0.506	C.3	1	385501	0.000	
51	 C26	19.054	16.018	2.590	C.2	1	385501	0.000	
52	 C26	11.674	8.617	-2.593	C.2	1	385501	0.000	
53	 C27	12.400	10.483	2.667	C.2	1	385501	0.000	
54	 C27	17.207	15.298	-2.679	C.2	1	385501	0.000	
55	 O28	14.482	12.019	2.399	O.2	1	385501	0.000	
56	 O28	15.660	13.231	-2.424	O.2	1	385501	0.000	
57	 O29	14.394	10.100	1.075	O.2	1	385501	0.000	
58	 O29	17.561	13.294	-1.087	O.2	1	385501	0.000	
59	 C30	12.115	11.521	-2.032	C.3	1	385501	0.000	
60	 C30	16.240	15.472	2.013	C.3	1	385501	0.000	
61	 O31	20.347	16.280	2.836	O.3	1	385501	0.000	
62	 O31	11.425	7.317	-2.815	O.3	1	385501	0.000	
63	 C32	11.829	9.212	2.343	C.2	1	385501	0.000	
64	 C32	18.479	15.857	-2.350	C.2	1	385501	0.000	
65	 C33	11.954	11.186	3.830	C.2	1	385501	0.000	
66	 C33	16.513	15.745	-3.845	C.2	1	385501	0.000	
67	 C34	11.002	10.842	-2.849	C.3	1	385501	0.000	
68	 C34	16.917	16.551	2.882	C.3	1	385501	0.000	
69	 C35	13.526	11.192	-2.577	C.3	1	385501	0.000	
70	 C35	16.672	14.042	2.419	C.3	1	385501	0.000	
71	 C36	21.231	16.973	2.008	C.3	1	385501	0.000	
72	 C36	10.842	6.425	-1.910	C.3	1	385501	0.000	
73	 C37	10.830	8.651	3.165	C.2	1	385501	0.000	
74	 C37	19.051	16.852	-3.170	C.2	1	385501	0.000	
75	 C38	10.949	10.620	4.656	C.2	1	385501	0.000	
76	 C38	17.090	16.744	-4.673	C.2	1	385501	0.000	
77	 C39	22.679	16.629	2.314	C.2	1	385501	0.000	
78	 C39	11.139	4.981	-2.262	C.2	1	385501	0.000	
79	 C40	10.383	9.351	4.320	C.2	1	385501	0.000	
80	 C40	18.362	17.300	-4.331	C.2	1	385501	0.000	
81	 O41	10.154	7.485	3.058	O.3	1	385501	0.000	
82	 O41	20.222	17.514	-3.056	O.3	1	385501	0.000	
83	 N42	23.519	17.466	2.965	N.2	1	385501	0.000	
84	 N42	10.256	4.167	-2.882	N.2	1	385501	0.000	
85	 C43	23.224	15.430	1.936	C.2	1	385501	0.000	
86	 C43	12.344	4.409	-1.953	C.2	1	385501	0.000	
87	 O44	9.426	8.618	4.932	O.3	1	385501	0.000	
88	 O44	19.108	18.249	-4.940	O.3	1	385501	0.000	
89	 C45	9.251	7.420	4.158	C.3	1	385501	0.000	
90	 C45	20.301	18.413	-4.157	C.3	1	385501	0.000	
91	 C46	24.709	16.985	3.117	C.2	1	385501	0.000	
92	 C46	10.710	2.973	-3.080	C.2	1	385501	0.000	
93	 S47	24.866	15.396	2.437	S.3	1	385501	0.000	
94	 S47	12.326	2.777	-2.486	S.3	1	385501	0.000	
95	 C48	25.838	17.715	3.807	C.3	1	385501	0.000	
96	 C48	9.928	1.868	-3.751	C.3	1	385501	0.000	
@<TRIPOS>BOND
1 1 3 1
2 2 4 1
3 1 5 1
4 2 6 1
5 1 7 1
6 2 8 1
7 3 9 1
8 4 10 1
9 3 11 1
10 4 12 1
11 5 13 1
12 9 13 1
13 6 14 1
14 10 14 1
15 5 15 1
16 6 16 1
17 7 17 1
18 11 17 1
19 8 18 1
20 12 18 1
21 15 19 1
22 16 20 1
23 19 21 1
24 20 22 1
25 19 23 2
26 20 24 2
27 21 25 1
28 22 26 1
29 25 27 1
30 26 28 1
31 25 29 1
32 26 30 1
33 27 31 1
34 28 32 1
35 29 33 1
36 30 34 1
37 29 35 1
38 30 36 1
39 31 37 1
40 32 38 1
41 31 39 2
42 32 40 2
43 33 41 1
44 34 42 1
45 37 43 2
46 38 44 2
47 39 45 1
48 40 46 1
49 41 47 1
50 42 48 1
51 41 49 1
52 42 50 1
53 43 51 1
54 45 51 2
55 44 52 1
56 46 52 2
57 47 53 1
58 48 54 1
59 47 55 2
60 48 56 2
61 47 57 2
62 48 58 2
63 49 59 1
64 50 60 1
65 51 61 1
66 52 62 1
67 53 63 2
68 54 64 2
69 53 65 1
70 54 66 1
71 59 67 1
72 60 68 1
73 59 69 1
74 60 70 1
75 61 71 1
76 62 72 1
77 63 73 1
78 64 74 1
79 65 75 2
80 66 76 2
81 71 77 1
82 72 78 1
83 73 79 2
84 75 79 1
85 74 80 2
86 76 80 1
87 73 81 1
88 74 82 1
89 77 83 1
90 78 84 1
91 77 85 2
92 78 86 2
93 79 87 1
94 80 88 1
95 81 89 1
96 87 89 1
97 82 90 1
98 88 90 1
99 83 91 2
100 84 92 2
101 85 93 1
102 91 93 1
103 86 94 1
104 92 94 1
105 91 95 1
106 92 96 1
@<TRIPOS>SUBSTRUCTURE
1	385501	1	GROUP	1 B	385
