# created with PyMOL 3.1.6.1
@<TRIPOS>MOLECULE
4fap
69 73 1                 
SMALL
USER_CHARGES
@<TRIPOS>ATOM
1	  C1	-6.950	25.718	40.337	C.2	1	ARD402	0.000	
2	  N1	-8.859	25.308	41.890	N.pl3	1	ARD402	0.000	
3	  O1	-7.922	26.220	39.401	O.3	1	ARD402	0.000	
4	  S1	-16.732	26.249	38.452	S.3	1	ARD402	0.000	
5	  C2	-7.401	25.272	41.719	C.3	1	ARD402	0.000	
6	  O2	-5.760	25.654	40.023	O.co2	1	ARD402	0.000	
7	  C3	-7.034	23.818	42.001	C.3	1	ARD402	0.000	
8	  O3	-8.603	27.005	43.331	O.2	1	ARD402	0.000	
9	  C4	-7.927	22.798	41.310	C.3	1	ARD402	0.000	
10	  O4	-10.888	25.369	44.139	O.2	1	ARD402	0.000	
11	  C5	-9.391	23.084	41.550	C.3	1	ARD402	0.000	
12	  O5	-11.976	26.379	41.373	O.3	1	ARD402	0.000	
13	  C6	-9.732	24.466	41.068	C.3	1	ARD402	0.000	
14	  O6	-13.064	26.946	43.355	O.3	1	ARD402	0.000	
15	  C7	-9.338	26.182	42.785	C.2	1	ARD402	0.000	
16	  C8	-10.677	26.144	43.208	C.2	1	ARD402	0.000	
17	  O8	-6.629	25.111	30.435	O.2	1	ARD402	0.000	
18	  C9	-11.823	26.985	42.626	C.3	1	ARD402	0.000	
19	  O9	-6.271	27.844	30.703	O.3	1	ARD402	0.000	
20	 C10	-11.353	28.455	42.477	C.3	1	ARD402	0.000	
21	 O10	-6.006	26.502	33.193	O.3	1	ARD402	0.000	
22	 C11	-12.142	29.154	41.371	C.3	1	ARD402	0.000	
23	 O11	-8.597	24.354	37.451	O.2	1	ARD402	0.000	
24	 C12	-12.326	28.322	40.115	C.3	1	ARD402	0.000	
25	 O12	-3.719	30.523	34.215	O.3	1	ARD402	0.000	
26	 C13	-12.817	26.900	40.399	C.3	1	ARD402	0.000	
27	 O13	-1.697	28.817	35.431	O.3	1	ARD402	0.000	
28	 C14	-12.875	25.899	39.244	C.3	1	ARD402	0.000	
29	 C15	-14.007	26.008	38.215	C.3	1	ARD402	0.000	
30	 C16	-13.524	25.333	36.982	C.2	1	ARD402	0.000	
31	 C17	-13.399	26.006	35.844	C.2	1	ARD402	0.000	
32	 C18	-12.918	25.461	34.569	C.2	1	ARD402	0.000	
33	 C19	-12.768	26.203	33.484	C.2	1	ARD402	0.000	
34	 C20	-12.168	25.615	32.286	C.2	1	ARD402	0.000	
35	 C21	-11.936	26.263	31.156	C.2	1	ARD402	0.000	
36	 C22	-11.335	25.625	29.908	C.3	1	ARD402	0.000	
37	 C23	-9.831	25.884	29.831	C.3	1	ARD402	0.000	
38	 C24	-8.971	25.189	30.885	C.3	1	ARD402	0.000	
39	 C25	-7.573	25.778	30.859	C.2	1	ARD402	0.000	
40	 C26	-7.373	27.227	31.318	C.3	1	ARD402	0.000	
41	 C27	-7.155	27.289	32.849	C.3	1	ARD402	0.000	
42	 C28	-8.314	26.840	33.793	C.2	1	ARD402	0.000	
43	 C29	-8.345	25.611	34.319	C.2	1	ARD402	0.000	
44	 C30	-9.346	25.043	35.300	C.3	1	ARD402	0.000	
45	 C31	-8.900	25.297	36.728	C.2	1	ARD402	0.000	
46	 C32	-8.848	26.715	37.253	C.3	1	ARD402	0.000	
47	 C33	-7.689	26.944	38.228	C.3	1	ARD402	0.000	
48	 C34	-7.572	28.460	38.591	C.3	1	ARD402	0.000	
49	 C35	-7.064	29.250	37.387	C.3	1	ARD402	0.000	
50	 C36	-5.789	28.709	36.740	C.3	1	ARD402	0.000	
51	 C37	-5.380	29.648	35.616	C.3	1	ARD402	0.000	
52	 C38	-4.007	29.424	34.974	C.3	1	ARD402	0.000	
53	 C39	-2.893	29.327	36.040	C.3	1	ARD402	0.000	
54	 C40	-3.288	28.375	37.173	C.3	1	ARD402	0.000	
55	 C41	-4.662	28.636	37.773	C.3	1	ARD402	0.000	
56	 C42	-11.533	29.219	43.787	C.3	1	ARD402	0.000	
57	 C43	-13.135	23.886	37.189	C.3	1	ARD402	0.000	
58	 C44	-12.006	26.192	28.672	C.3	1	ARD402	0.000	
59	 C45	-8.910	23.708	30.617	C.3	1	ARD402	0.000	
60	 C46	-9.406	27.900	34.070	C.3	1	ARD402	0.000	
61	 C47	-9.473	23.561	35.061	C.3	1	ARD402	0.000	
62	 C48	-8.926	29.020	39.004	C.3	1	ARD402	0.000	
63	 C49	-15.272	25.469	38.735	C.2	1	ARD402	0.000	
64	 C50	-5.856	27.468	29.431	C.3	1	ARD402	0.000	
65	 C51	-4.528	30.763	33.097	C.3	1	ARD402	0.000	
66	 C52	-17.536	25.280	39.560	C.2	1	ARD402	0.000	
67	 C53	-16.638	24.517	40.304	C.2	1	ARD402	0.000	
68	 C54	-15.342	24.580	39.805	C.2	1	ARD402	0.000	
69	 C55	-18.995	25.336	39.801	C.3	1	ARD402	0.000	
@<TRIPOS>BOND
1 1 3 1
2 1 5 1
3 2 5 1
4 1 6 2
5 5 7 1
6 7 9 1
7 9 11 1
8 2 13 1
9 11 13 1
10 2 15 1
11 8 15 2
12 10 16 2
13 15 16 1
14 12 18 1
15 14 18 1
16 16 18 1
17 18 20 1
18 20 22 1
19 22 24 1
20 12 26 1
21 24 26 1
22 26 28 1
23 28 29 1
24 29 30 1
25 30 31 2
26 31 32 1
27 32 33 2
28 33 34 1
29 34 35 2
30 35 36 1
31 36 37 1
32 37 38 1
33 17 39 2
34 38 39 1
35 19 40 1
36 39 40 1
37 21 41 1
38 40 41 1
39 41 42 1
40 42 43 2
41 43 44 1
42 23 45 2
43 44 45 1
44 45 46 1
45 3 47 1
46 46 47 1
47 47 48 1
48 48 49 1
49 49 50 1
50 50 51 1
51 25 52 1
52 51 52 1
53 27 53 1
54 52 53 1
55 53 54 1
56 50 55 1
57 54 55 1
58 20 56 1
59 30 57 1
60 36 58 1
61 38 59 1
62 42 60 1
63 44 61 1
64 48 62 1
65 4 63 1
66 29 63 1
67 19 64 1
68 25 65 1
69 4 66 1
70 66 67 2
71 63 68 2
72 67 68 1
73 66 69 1
@<TRIPOS>SUBSTRUCTURE
1	ARD402	1	GROUP	1 A	ARD
