# created with PyMOL 3.1.6.1
@<TRIPOS>MOLECULE
1b6k
49 52 1                 
SMALL
USER_CHARGES
@<TRIPOS>ATOM
1	  C1	3.951	3.591	8.449	C.3	1	PI5201	0.000	
2	  C2	3.359	2.366	9.193	C.3	1	PI5201	0.000	
3	  C3	3.531	4.151	10.659	C.2	1	PI5201	0.000	
4	  O4	3.545	4.772	11.727	O.2	1	PI5201	0.000	
5	  C5	3.850	4.804	9.347	C.3	1	PI5201	0.000	
6	  N6	3.229	2.845	10.595	N.pl3	1	PI5201	0.000	
7	  C7	2.904	2.093	11.806	C.3	1	PI5201	0.000	
8	  C8	1.614	1.264	11.573	C.3	1	PI5201	0.000	
9	  C9	1.272	0.458	12.812	C.3	1	PI5201	0.000	
10	 C10	0.456	2.186	11.248	C.3	1	PI5201	0.000	
11	 C11	4.108	1.214	12.123	C.2	1	PI5201	0.000	
12	 O12	4.251	0.103	11.590	O.2	1	PI5201	0.000	
13	 N13	4.993	1.739	12.965	N.pl3	1	PI5201	0.000	
14	 C14	6.209	1.025	13.362	C.3	1	PI5201	0.000	
15	 C15	7.437	1.897	13.106	C.3	1	PI5201	0.000	
16	 C16	7.597	2.299	11.670	C.2	1	PI5201	0.000	
17	 C17	7.807	1.343	10.684	C.2	1	PI5201	0.000	
18	 C18	7.514	3.636	11.290	C.2	1	PI5201	0.000	
19	 C19	7.927	1.703	9.354	C.2	1	PI5201	0.000	
20	 C20	7.633	4.009	9.964	C.2	1	PI5201	0.000	
21	 C21	7.838	3.036	9.001	C.2	1	PI5201	0.000	
22	 C22	6.173	0.620	14.824	C.3	1	PI5201	0.000	
23	 C23	4.985	-0.289	15.106	C.3	1	PI5201	0.000	
24	 O24	7.384	-0.073	15.137	O.3	1	PI5201	0.000	
25	 O25	7.946	3.390	7.675	O.3	1	PI5201	0.000	
26	 N26	5.022	-0.658	16.524	N.3	1	PI5201	0.000	
27	 C27	4.809	-2.109	16.808	C.3	1	PI5201	0.000	
28	 C28	3.407	-2.561	16.399	C.3	1	PI5201	0.000	
29	 C29	3.256	-4.052	16.524	C.2	1	PI5201	0.000	
30	 C30	3.209	-4.663	17.779	C.2	1	PI5201	0.000	
31	 C31	3.209	-6.039	17.903	C.2	1	PI5201	0.000	
32	 C32	3.285	-4.864	15.395	C.2	1	PI5201	0.000	
33	 C33	3.287	-6.238	15.509	C.2	1	PI5201	0.000	
34	 C34	3.255	-6.820	16.762	C.2	1	PI5201	0.000	
35	 O35	3.299	-8.190	16.851	O.3	1	PI5201	0.000	
36	 C36	3.818	-8.846	17.992	C.3	1	PI5201	0.000	
37	 C37	5.834	-3.104	16.261	C.2	1	PI5201	0.000	
38	 O38	6.091	-3.164	15.056	O.2	1	PI5201	0.000	
39	 N39	6.399	-3.897	17.167	N.pl3	1	PI5201	0.000	
40	 C40	7.389	-4.931	16.830	C.3	1	PI5201	0.000	
41	 C41	7.069	-6.010	17.867	C.2	1	PI5201	0.000	
42	 O42	7.213	-5.779	19.076	O.2	1	PI5201	0.000	
43	 C43	8.856	-4.457	17.051	C.3	1	PI5201	0.000	
44	 C44	9.216	-3.331	16.084	C.3	1	PI5201	0.000	
45	 C45	9.825	-5.617	16.852	C.3	1	PI5201	0.000	
46	 C46	9.552	-3.793	14.695	C.3	1	PI5201	0.000	
47	 N47	6.590	-7.161	17.402	N.pl3	1	PI5201	0.000	
48	 C48	6.267	-8.247	18.315	C.3	1	PI5201	0.000	
49	 C49	5.268	-9.271	17.781	C.3	1	PI5201	0.000	
@<TRIPOS>BOND
1 1 2 1
2 3 4 2
3 1 5 1
4 3 5 1
5 2 6 1
6 3 6 1
7 6 7 1
8 7 8 1
9 8 9 1
10 8 10 1
11 7 11 1
12 11 12 2
13 11 13 1
14 13 14 1
15 14 15 1
16 15 16 1
17 16 17 2
18 16 18 1
19 17 19 1
20 18 20 2
21 19 21 2
22 20 21 1
23 14 22 1
24 22 23 1
25 22 24 1
26 21 25 1
27 23 26 1
28 26 27 1
29 27 28 1
30 28 29 1
31 29 30 1
32 30 31 2
33 29 32 2
34 32 33 1
35 31 34 1
36 33 34 2
37 34 35 1
38 35 36 1
39 27 37 1
40 37 38 2
41 37 39 1
42 39 40 1
43 40 41 1
44 41 42 2
45 40 43 1
46 43 44 1
47 43 45 1
48 44 46 1
49 41 47 1
50 47 48 1
51 36 49 1
52 48 49 1
@<TRIPOS>SUBSTRUCTURE
1	PI5201	1	GROUP	1 A	PI5
