# created with PyMOL 3.1.6.1
@<TRIPOS>MOLECULE
3o9b
42 43 3                 
SMALL
USER_CHARGES
@<TRIPOS>ATOM
1	  C1	14.438	35.872	18.160	C.3	1	K2A200	0.000	
2	  O1	14.878	35.853	19.520	O.3	1	K2A200	0.000	
3	  C2	15.340	34.986	17.325	C.2	1	K2A200	0.000	
4	  C3	15.173	33.606	17.298	C.2	1	K2A200	0.000	
5	  C4	16.020	32.807	16.510	C.2	1	K2A200	0.000	
6	  C5	17.048	33.378	15.756	C.2	1	K2A200	0.000	
7	  C6	17.202	34.769	15.805	C.2	1	K2A200	0.000	
8	  C7	16.358	35.564	16.577	C.2	1	K2A200	0.000	
9	  S8	18.059	32.458	14.851	S.O2	1	K2A200	0.000	
10	  O9	18.705	33.286	13.877	O.2	1	K2A200	0.000	
11	 O10	17.310	31.387	14.292	O.2	1	K2A200	0.000	
12	 N11	19.295	31.841	15.716	N.3	1	K2A200	0.000	
13	 C12	20.005	32.881	16.512	C.3	1	K2A200	0.000	
14	 C13	21.508	32.608	16.548	C.3	1	K2A200	0.000	
15	 C14	22.136	32.570	15.153	C.3	1	K2A200	0.000	
16	 C15	22.189	33.627	17.465	C.3	1	K2A200	0.000	
17	 C16	18.983	30.572	16.419	C.3	1	K2A200	0.000	
18	 C17	19.902	29.472	15.852	C.3	1	K2A200	0.000	
19	 C18	22.061	35.049	16.968	C.3	1	K2A200	0.000	
20	 O18	19.824	28.306	16.699	O.3	1	K2A200	0.000	
21	 C19	19.572	29.082	14.411	C.3	1	K2A200	0.000	
22	 N20	20.651	28.250	13.923	N.pl3	1	K2A200	0.000	
23	 C21	21.533	28.623	13.011	C.2	1	K2A200	0.000	
24	 O22	21.600	29.681	12.412	O.co2	1	K2A200	0.000	
25	 O23	22.514	27.609	12.764	O.3	1	K2A200	0.000	
26	 C24	23.340	27.757	11.619	C.3	1	K2A200	0.000	
27	 C25	24.660	27.161	12.053	C.3	1	K2A200	0.000	
28	 O26	24.458	25.754	11.894	O.3	1	K2A200	0.000	
29	 C27	23.561	25.526	10.811	C.3	1	K2A200	0.000	
30	 O28	22.552	24.595	11.186	O.3	1	K2A200	0.000	
31	 C29	21.273	25.242	11.234	C.3	1	K2A200	0.000	
32	 C30	21.398	26.535	10.438	C.3	1	K2A200	0.000	
33	 C31	22.885	26.847	10.510	C.3	1	K2A200	0.000	
34	 C32	18.266	28.293	14.255	C.3	1	K2A200	0.000	
35	 C33	17.719	28.895	11.858	C.2	1	K2A200	0.000	
36	 C34	17.515	28.551	10.525	C.2	1	K2A200	0.000	
37	 C35	17.597	27.227	10.123	C.2	1	K2A200	0.000	
38	 C36	17.894	26.262	11.055	C.2	1	K2A200	0.000	
39	 C37	18.106	26.594	12.389	C.2	1	K2A200	0.000	
40	 C38	18.028	27.917	12.807	C.2	1	K2A200	0.000	
41	   O	18.615	10.442	24.720	O.3	2	HOH103	0.000	WATER
42	   O	16.127	19.987	33.478	O.3	3	HOH158	0.000	WATER
@<TRIPOS>BOND
1 1 2 1
2 1 3 1
3 3 4 2
4 4 5 1
5 5 6 2
6 6 7 1
7 3 8 1
8 7 8 2
9 6 9 1
10 9 10 2
11 9 11 2
12 9 12 1
13 12 13 1
14 13 14 1
15 14 15 1
16 14 16 1
17 12 17 1
18 17 18 1
19 16 19 1
20 18 20 1
21 18 21 1
22 21 22 1
23 22 23 1
24 23 24 2
25 23 25 1
26 25 26 1
27 26 27 1
28 27 28 1
29 28 29 1
30 29 30 1
31 30 31 1
32 31 32 1
33 26 33 1
34 29 33 1
35 32 33 1
36 21 34 1
37 35 36 2
38 36 37 1
39 37 38 2
40 38 39 1
41 34 40 1
42 35 40 1
43 39 40 2
@<TRIPOS>SUBSTRUCTURE
1	K2A200	1	GROUP	1 A	K2A
2	HOH103	41	GROUP	1 B	HOH
3	HOH158	42	GROUP	1 B	HOH
