# created with PyMOL 3.1.6.1
@<TRIPOS>MOLECULE
1fap
68 71 1                 
SMALL
USER_CHARGES
@<TRIPOS>ATOM
1	  C1	-6.816	26.014	40.365	C.2	1	RAP108	0.000	
2	  O1	-7.715	26.739	39.504	O.3	1	RAP108	0.000	
3	  C2	-7.234	25.472	41.742	C.3	1	RAP108	0.000	
4	  O2	-5.659	25.863	39.953	O.co2	1	RAP108	0.000	
5	  C3	-6.748	24.038	41.963	C.3	1	RAP108	0.000	
6	  O3	-8.653	27.066	43.484	O.2	1	RAP108	0.000	
7	  C4	-7.531	22.968	41.204	C.3	1	RAP108	0.000	
8	  O4	-11.026	25.607	44.055	O.2	1	RAP108	0.000	
9	  C5	-9.027	23.085	41.430	C.3	1	RAP108	0.000	
10	  O5	-11.749	26.675	41.029	O.3	1	RAP108	0.000	
11	  C6	-9.492	24.485	41.139	C.3	1	RAP108	0.000	
12	  O6	-12.815	27.195	43.206	O.3	1	RAP108	0.000	
13	  N7	-8.685	25.389	41.985	N.pl3	1	RAP108	0.000	
14	  O7	-14.764	26.288	38.070	O.3	1	RAP108	0.000	
15	  C8	-9.287	26.223	42.852	C.2	1	RAP108	0.000	
16	  O8	-5.913	25.475	30.185	O.2	1	RAP108	0.000	
17	  C9	-10.645	26.309	43.120	C.2	1	RAP108	0.000	
18	  O9	-5.514	27.884	30.789	O.3	1	RAP108	0.000	
19	 C10	-11.647	27.189	42.361	C.3	1	RAP108	0.000	
20	 O10	-5.394	26.369	33.097	O.3	1	RAP108	0.000	
21	 C11	-11.102	28.623	42.177	C.3	1	RAP108	0.000	
22	 O11	-8.235	24.591	37.334	O.2	1	RAP108	0.000	
23	 C12	-12.102	29.453	41.362	C.3	1	RAP108	0.000	
24	 O12	-3.117	30.527	34.126	O.3	1	RAP108	0.000	
25	 C13	-12.661	28.755	40.117	C.3	1	RAP108	0.000	
26	 O13	-1.167	28.920	35.507	O.3	1	RAP108	0.000	
27	 C14	-12.744	27.225	40.197	C.3	1	RAP108	0.000	
28	 C15	-12.476	26.558	38.844	C.3	1	RAP108	0.000	
29	 C16	-13.491	26.688	37.700	C.3	1	RAP108	0.000	
30	 C17	-13.020	25.794	36.553	C.2	1	RAP108	0.000	
31	 C18	-12.702	26.344	35.400	C.2	1	RAP108	0.000	
32	 C19	-12.183	25.694	34.165	C.2	1	RAP108	0.000	
33	 C20	-12.264	26.351	33.003	C.2	1	RAP108	0.000	
34	 C21	-11.719	25.829	31.760	C.2	1	RAP108	0.000	
35	 C22	-10.967	26.472	30.890	C.2	1	RAP108	0.000	
36	 C23	-10.527	25.696	29.671	C.3	1	RAP108	0.000	
37	 C24	-9.009	25.760	29.546	C.3	1	RAP108	0.000	
38	 C25	-8.217	25.354	30.783	C.3	1	RAP108	0.000	
39	 C26	-6.853	26.023	30.751	C.2	1	RAP108	0.000	
40	 C27	-6.684	27.414	31.356	C.3	1	RAP108	0.000	
41	 C28	-6.426	27.335	32.858	C.3	1	RAP108	0.000	
42	 C29	-7.657	26.973	33.703	C.2	1	RAP108	0.000	
43	 C30	-7.814	25.804	34.281	C.2	1	RAP108	0.000	
44	 C31	-8.914	25.353	35.171	C.3	1	RAP108	0.000	
45	 C32	-8.560	25.557	36.644	C.2	1	RAP108	0.000	
46	 C33	-8.639	26.961	37.262	C.3	1	RAP108	0.000	
47	 C34	-7.455	27.273	38.205	C.3	1	RAP108	0.000	
48	 C35	-7.353	28.808	38.512	C.3	1	RAP108	0.000	
49	 C36	-6.618	29.542	37.393	C.3	1	RAP108	0.000	
50	 C37	-5.242	29.057	36.926	C.3	1	RAP108	0.000	
51	 C38	-4.839	29.836	35.667	C.3	1	RAP108	0.000	
52	 C39	-3.488	29.508	35.015	C.3	1	RAP108	0.000	
53	 C40	-2.354	29.491	36.072	C.3	1	RAP108	0.000	
54	 C41	-2.766	28.682	37.309	C.3	1	RAP108	0.000	
55	 C42	-4.078	29.130	37.914	C.3	1	RAP108	0.000	
56	 C43	-10.856	29.287	43.527	C.3	1	RAP108	0.000	
57	 C44	-12.882	24.304	36.817	C.3	1	RAP108	0.000	
58	 C45	-11.166	26.303	28.459	C.3	1	RAP108	0.000	
59	 C46	-8.066	23.836	30.825	C.3	1	RAP108	0.000	
60	 C47	-8.663	28.083	33.806	C.3	1	RAP108	0.000	
61	 C48	-9.109	23.870	34.864	C.3	1	RAP108	0.000	
62	 C49	-8.736	29.425	38.657	C.3	1	RAP108	0.000	
63	 C50	-15.819	26.946	37.457	C.3	1	RAP108	0.000	
64	 C51	-5.711	28.919	29.903	C.3	1	RAP108	0.000	
65	 C52	-4.002	31.014	33.140	C.3	1	RAP108	0.000	
66	 HO1	-4.969	26.537	33.948	 H	1	RAP108	0.000	
67	 HO3	-0.427	29.516	35.649	 H	1	RAP108	0.000	
68	 HO6	-12.593	27.124	44.143	 H	1	RAP108	0.000	
@<TRIPOS>BOND
1 1 2 1
2 1 3 1
3 1 4 2
4 3 5 1
5 5 7 1
6 7 9 1
7 9 11 1
8 3 13 1
9 11 13 1
10 6 15 2
11 13 15 1
12 8 17 2
13 15 17 1
14 10 19 1
15 12 19 1
16 17 19 1
17 19 21 1
18 21 23 1
19 23 25 1
20 10 27 1
21 25 27 1
22 27 28 1
23 14 29 1
24 28 29 1
25 29 30 1
26 30 31 2
27 31 32 1
28 32 33 2
29 33 34 1
30 34 35 2
31 35 36 1
32 36 37 1
33 37 38 1
34 16 39 2
35 38 39 1
36 18 40 1
37 39 40 1
38 20 41 1
39 40 41 1
40 41 42 1
41 42 43 2
42 43 44 1
43 22 45 2
44 44 45 1
45 45 46 1
46 2 47 1
47 46 47 1
48 47 48 1
49 48 49 1
50 49 50 1
51 50 51 1
52 24 52 1
53 51 52 1
54 26 53 1
55 52 53 1
56 53 54 1
57 50 55 1
58 54 55 1
59 21 56 1
60 30 57 1
61 36 58 1
62 38 59 1
63 42 60 1
64 44 61 1
65 48 62 1
66 14 63 1
67 18 64 1
68 24 65 1
69 20 66 1
70 26 67 1
71 12 68 1
@<TRIPOS>SUBSTRUCTURE
1	RAP108	1	GROUP	1 A	RAP
