# created with PyMOL 3.1.6.1
@<TRIPOS>MOLECULE
6oxq
83 86 1                 
SMALL
USER_CHARGES
@<TRIPOS>ATOM
1	  C1	65.172	51.271	12.840	C.3	1	F53101	0.000	
2	  O1	65.725	51.278	11.557	O.3	1	F53101	0.000	
3	  C2	66.105	52.134	13.693	C.2	1	F53101	0.000	
4	  C3	67.276	51.463	14.427	C.2	1	F53101	0.000	
5	  C4	68.223	52.322	15.271	C.2	1	F53101	0.000	
6	  C5	67.975	53.829	15.347	C.2	1	F53101	0.000	
7	  C6	66.822	54.512	14.608	C.2	1	F53101	0.000	
8	  C7	65.873	53.650	13.767	C.2	1	F53101	0.000	
9	  O8	73.578	62.703	19.715	O.3	1	F53101	0.000	
10	  S8	69.118	54.840	16.343	S.O2	1	F53101	0.000	
11	  O9	68.407	55.915	17.024	O.2	1	F53101	0.000	
12	 O10	69.732	54.009	17.388	O.2	1	F53101	0.000	
13	 N11	70.309	55.460	15.233	N.3	1	F53101	0.000	
14	 C12	70.962	54.405	14.391	C.3	1	F53101	0.000	
15	 C13	72.531	54.497	14.521	C.3	1	F53101	0.000	
16	 C14	73.195	53.445	13.597	C.3	1	F53101	0.000	
17	 C15	72.921	54.306	16.007	C.3	1	F53101	0.000	
18	 C16	69.948	56.748	14.582	C.3	1	F53101	0.000	
19	 C17	70.890	57.845	15.121	C.3	1	F53101	0.000	
20	 C18	74.434	54.402	16.182	C.3	1	F53101	0.000	
21	 O18	70.790	58.980	14.344	O.3	1	F53101	0.000	
22	 C19	70.533	58.183	16.583	C.3	1	F53101	0.000	
23	 C20	72.855	51.996	14.012	C.3	1	F53101	0.000	
24	 N20	71.533	59.099	17.066	N.pl3	1	F53101	0.000	
25	 C21	72.518	58.707	18.084	C.2	1	F53101	0.000	
26	 O22	72.509	57.645	18.625	O.co2	1	F53101	0.000	
27	 O23	73.482	59.707	18.379	O.3	1	F53101	0.000	
28	 C24	74.252	59.556	19.579	C.3	1	F53101	0.000	
29	 C25	75.702	60.091	19.200	C.3	1	F53101	0.000	
30	 O26	75.410	61.656	19.124	O.3	1	F53101	0.000	
31	 C27	74.529	61.903	20.121	C.3	1	F53101	0.000	
32	 C29	72.198	61.853	19.732	C.3	1	F53101	0.000	
33	 C30	72.510	60.620	20.627	C.3	1	F53101	0.000	
34	 C31	73.850	60.417	20.552	C.3	1	F53101	0.000	
35	 C32	69.196	58.914	16.686	C.3	1	F53101	0.000	
36	 C33	68.639	58.288	19.218	C.2	1	F53101	0.000	
37	 C34	68.434	58.693	20.685	C.2	1	F53101	0.000	
38	 C35	68.590	60.160	21.101	C.2	1	F53101	0.000	
39	 C36	68.948	61.220	20.056	C.2	1	F53101	0.000	
40	 C37	69.150	60.818	18.596	C.2	1	F53101	0.000	
41	 C38	68.992	59.343	18.175	C.2	1	F53101	0.000	
42	HN20	71.554	59.898	16.749	 H	1	F53101	0.000	
43	 HO1	66.444	50.825	11.556	 H	1	F53101	0.000	
44	HO18	71.086	58.816	13.564	 H	1	F53101	0.000	
45	  H1	65.142	50.365	13.187	 H	1	F53101	0.000	
46	  H3	67.403	50.544	14.367	 H	1	F53101	0.000	
47	  H4	68.935	51.935	15.727	 H	1	F53101	0.000	
48	  H6	66.696	55.432	14.671	 H	1	F53101	0.000	
49	  H7	65.163	54.040	13.310	 H	1	F53101	0.000	
50	 H12	70.666	53.530	14.687	 H	1	F53101	0.000	
51	 H13	72.814	55.380	14.238	 H	1	F53101	0.000	
52	 H14	72.891	53.590	12.687	 H	1	F53101	0.000	
53	 H15	72.494	54.995	16.540	 H	1	F53101	0.000	
54	 H16	69.029	56.974	14.792	 H	1	F53101	0.000	
55	 H17	71.804	57.520	15.088	 H	1	F53101	0.000	
56	 H18	74.761	55.204	15.744	 H	1	F53101	0.000	
57	 H19	70.522	57.378	17.124	 H	1	F53101	0.000	
58	 H20	73.367	51.757	14.801	 H	1	F53101	0.000	
59	 H24	74.275	58.638	19.892	 H	1	F53101	0.000	
60	 H25	75.978	59.745	18.337	 H	1	F53101	0.000	
61	 H1A	64.282	51.654	12.824	 H	1	F53101	0.000	
62	 H27	74.988	62.292	20.882	 H	1	F53101	0.000	
63	 H29	71.966	61.568	18.835	 H	1	F53101	0.000	
64	 H30	72.037	59.841	20.295	 H	1	F53101	0.000	
65	 H31	74.192	60.131	21.413	 H	1	F53101	0.000	
66	 H32	69.208	59.700	16.117	 H	1	F53101	0.000	
67	 H33	68.543	57.399	18.964	 H	1	F53101	0.000	
68	 H34	68.218	58.049	21.320	 H	1	F53101	0.000	
69	 H35	68.468	60.407	21.989	 H	1	F53101	0.000	
70	 H36	69.042	62.109	20.310	 H	1	F53101	0.000	
71	 H37	69.367	61.462	17.961	 H	1	F53101	0.000	
72	H12A	70.708	54.532	13.463	 H	1	F53101	0.000	
73	H14A	74.157	53.563	13.629	 H	1	F53101	0.000	
74	H15A	72.618	53.435	16.309	 H	1	F53101	0.000	
75	H16A	70.054	56.669	13.621	 H	1	F53101	0.000	
76	H18A	74.856	53.623	15.786	 H	1	F53101	0.000	
77	H18B	74.648	54.440	17.127	 H	1	F53101	0.000	
78	H20A	71.908	51.929	14.208	 H	1	F53101	0.000	
79	H20B	73.079	51.391	13.287	 H	1	F53101	0.000	
80	H25A	76.346	59.886	19.896	 H	1	F53101	0.000	
81	H29A	71.483	62.380	20.122	 H	1	F53101	0.000	
82	H30A	72.255	60.805	21.545	 H	1	F53101	0.000	
83	H32A	68.477	58.323	16.413	 H	1	F53101	0.000	
@<TRIPOS>BOND
1 1 2 1
2 1 3 1
3 3 4 2
4 4 5 1
5 5 6 2
6 6 7 1
7 3 8 1
8 7 8 2
9 6 10 1
10 10 11 2
11 10 12 2
12 10 13 1
13 13 14 1
14 14 15 1
15 15 16 1
16 15 17 1
17 13 18 1
18 18 19 1
19 17 20 1
20 19 21 1
21 19 22 1
22 16 23 1
23 22 24 1
24 24 25 1
25 25 26 2
26 25 27 1
27 27 28 1
28 28 29 1
29 29 30 1
30 9 31 1
31 30 31 1
32 9 32 1
33 32 33 1
34 28 34 1
35 31 34 1
36 33 34 1
37 22 35 1
38 36 37 2
39 37 38 1
40 38 39 2
41 39 40 1
42 35 41 1
43 36 41 1
44 40 41 2
45 24 42 1
46 2 43 1
47 21 44 1
48 1 45 1
49 4 46 1
50 5 47 1
51 7 48 1
52 8 49 1
53 14 50 1
54 15 51 1
55 16 52 1
56 17 53 1
57 18 54 1
58 19 55 1
59 20 56 1
60 22 57 1
61 23 58 1
62 28 59 1
63 29 60 1
64 1 61 1
65 31 62 1
66 32 63 1
67 33 64 1
68 34 65 1
69 35 66 1
70 36 67 1
71 37 68 1
72 38 69 1
73 39 70 1
74 40 71 1
75 14 72 1
76 16 73 1
77 17 74 1
78 18 75 1
79 20 76 1
80 20 77 1
81 23 78 1
82 23 79 1
83 29 80 1
84 32 81 1
85 33 82 1
86 35 83 1
@<TRIPOS>SUBSTRUCTURE
1	F53101	1	GROUP	1 A	F53
