# created with PyMOL 3.1.6.1
@<TRIPOS>MOLECULE
3fap
69 73 1                 
SMALL
USER_CHARGES
@<TRIPOS>ATOM
1	  C1	-6.305	25.794	39.849	C.2	1	ARD402	0.000	
2	  N1	-8.301	25.188	41.268	N.pl3	1	ARD402	0.000	
3	  O1	-7.324	26.316	38.943	O.3	1	ARD402	0.000	
4	  S1	-15.304	26.058	37.697	S.3	1	ARD402	0.000	
5	  C2	-6.887	25.189	41.100	C.3	1	ARD402	0.000	
6	  O2	-5.126	25.530	39.577	O.co2	1	ARD402	0.000	
7	  C3	-6.262	23.805	41.445	C.3	1	ARD402	0.000	
8	  O3	-8.024	26.932	42.578	O.2	1	ARD402	0.000	
9	  C4	-7.024	22.775	40.571	C.3	1	ARD402	0.000	
10	  O4	-10.805	25.360	43.238	O.2	1	ARD402	0.000	
11	  C5	-8.593	22.867	40.848	C.3	1	ARD402	0.000	
12	  O5	-11.148	26.860	40.272	O.3	1	ARD402	0.000	
13	  C6	-9.164	24.227	40.457	C.3	1	ARD402	0.000	
14	  O6	-12.472	26.936	42.273	O.3	1	ARD402	0.000	
15	  C7	-8.837	26.117	42.016	C.2	1	ARD402	0.000	
16	  C8	-10.239	26.214	42.452	C.2	1	ARD402	0.000	
17	  O8	-5.391	25.387	29.692	O.2	1	ARD402	0.000	
18	  C9	-11.147	27.180	41.768	C.3	1	ARD402	0.000	
19	  O9	-4.899	27.933	30.484	O.3	1	ARD402	0.000	
20	 C10	-10.676	28.589	41.951	C.3	1	ARD402	0.000	
21	 O10	-4.741	26.173	32.551	O.3	1	ARD402	0.000	
22	 C11	-11.721	29.598	41.216	C.3	1	ARD402	0.000	
23	 O11	-7.464	24.217	36.748	O.2	1	ARD402	0.000	
24	 C12	-11.783	29.168	39.731	C.3	1	ARD402	0.000	
25	 O12	-2.846	30.505	33.596	O.3	1	ARD402	0.000	
26	 C13	-12.195	27.681	39.600	C.3	1	ARD402	0.000	
27	 O13	-0.860	28.923	34.643	O.3	1	ARD402	0.000	
28	 C14	-12.003	27.281	38.016	C.3	1	ARD402	0.000	
29	 C15	-12.427	25.769	37.931	C.3	1	ARD402	0.000	
30	 C16	-12.254	25.258	36.424	C.2	1	ARD402	0.000	
31	 C17	-11.957	26.071	35.452	C.2	1	ARD402	0.000	
32	 C18	-11.590	25.484	34.064	C.2	1	ARD402	0.000	
33	 C19	-11.384	26.306	33.068	C.2	1	ARD402	0.000	
34	 C20	-11.037	25.512	31.863	C.2	1	ARD402	0.000	
35	 C21	-10.686	26.238	30.769	C.2	1	ARD402	0.000	
36	 C22	-10.224	25.554	29.453	C.3	1	ARD402	0.000	
37	 C23	-8.739	25.784	29.282	C.3	1	ARD402	0.000	
38	 C24	-7.727	25.277	30.344	C.3	1	ARD402	0.000	
39	 C25	-6.392	25.952	30.190	C.2	1	ARD402	0.000	
40	 C26	-6.174	27.325	30.981	C.3	1	ARD402	0.000	
41	 C27	-5.837	27.109	32.452	C.3	1	ARD402	0.000	
42	 C28	-7.089	26.663	33.269	C.2	1	ARD402	0.000	
43	 C29	-7.094	25.427	33.844	C.2	1	ARD402	0.000	
44	 C30	-8.393	24.993	34.620	C.3	1	ARD402	0.000	
45	 C31	-7.970	25.121	36.076	C.2	1	ARD402	0.000	
46	 C32	-8.045	26.590	36.604	C.3	1	ARD402	0.000	
47	 C33	-6.830	26.715	37.690	C.3	1	ARD402	0.000	
48	 C34	-6.670	28.226	38.062	C.3	1	ARD402	0.000	
49	 C35	-6.245	29.130	36.861	C.3	1	ARD402	0.000	
50	 C36	-5.038	28.585	36.123	C.3	1	ARD402	0.000	
51	 C37	-4.541	29.754	35.079	C.3	1	ARD402	0.000	
52	 C38	-3.222	29.374	34.359	C.3	1	ARD402	0.000	
53	 C39	-2.084	29.283	35.437	C.3	1	ARD402	0.000	
54	 C40	-2.467	28.137	36.380	C.3	1	ARD402	0.000	
55	 C41	-3.849	28.423	37.021	C.3	1	ARD402	0.000	
56	 C42	-10.751	28.837	43.527	C.3	1	ARD402	0.000	
57	 C43	-12.193	23.798	36.446	C.3	1	ARD402	0.000	
58	 C44	-10.898	26.099	28.136	C.3	1	ARD402	0.000	
59	 C45	-7.641	23.759	30.194	C.3	1	ARD402	0.000	
60	 C46	-8.164	27.717	33.271	C.3	1	ARD402	0.000	
61	 C47	-8.635	23.510	34.289	C.3	1	ARD402	0.000	
62	 C48	-8.083	28.821	38.496	C.3	1	ARD402	0.000	
63	 C49	-13.768	25.549	38.327	C.2	1	ARD402	0.000	
64	 C50	-4.881	28.496	29.220	C.3	1	ARD402	0.000	
65	 C51	-3.740	30.777	32.399	C.3	1	ARD402	0.000	
66	 C52	-16.191	25.375	38.899	C.2	1	ARD402	0.000	
67	 C53	-15.356	24.659	39.863	C.2	1	ARD402	0.000	
68	 C54	-14.028	24.806	39.547	C.2	1	ARD402	0.000	
69	 C55	-17.605	25.362	38.982	C.3	1	ARD402	0.000	
@<TRIPOS>BOND
1 1 3 1
2 1 5 1
3 2 5 1
4 1 6 2
5 5 7 1
6 7 9 1
7 9 11 1
8 2 13 1
9 11 13 1
10 2 15 1
11 8 15 2
12 10 16 2
13 15 16 1
14 12 18 1
15 14 18 1
16 16 18 1
17 18 20 1
18 20 22 1
19 22 24 1
20 12 26 1
21 24 26 1
22 26 28 1
23 28 29 1
24 29 30 1
25 30 31 2
26 31 32 1
27 32 33 2
28 33 34 1
29 34 35 2
30 35 36 1
31 36 37 1
32 37 38 1
33 17 39 2
34 38 39 1
35 19 40 1
36 39 40 1
37 21 41 1
38 40 41 1
39 41 42 1
40 42 43 2
41 43 44 1
42 23 45 2
43 44 45 1
44 45 46 1
45 3 47 1
46 46 47 1
47 47 48 1
48 48 49 1
49 49 50 1
50 50 51 1
51 25 52 1
52 51 52 1
53 27 53 1
54 52 53 1
55 53 54 1
56 50 55 1
57 54 55 1
58 20 56 1
59 30 57 1
60 36 58 1
61 38 59 1
62 42 60 1
63 44 61 1
64 48 62 1
65 4 63 1
66 29 63 1
67 19 64 1
68 25 65 1
69 4 66 1
70 66 67 2
71 63 68 2
72 67 68 1
73 66 69 1
@<TRIPOS>SUBSTRUCTURE
1	ARD402	1	GROUP	1 A	ARD
