# created with PyMOL 3.1.6.1
@<TRIPOS>MOLECULE
4dri
65 68 1                 
SMALL
USER_CHARGES
@<TRIPOS>ATOM
1	  C1	36.000	53.532	34.202	C.2	1	RAP201	0.000	
2	  O1	36.349	52.493	35.080	O.3	1	RAP201	0.000	
3	  C2	37.178	54.186	33.515	C.3	1	RAP201	0.000	
4	  O2	34.874	53.890	34.044	O.co2	1	RAP201	0.000	
5	  C3	36.938	54.175	31.992	C.3	1	RAP201	0.000	
6	  O3	39.095	55.426	35.051	O.2	1	RAP201	0.000	
7	  C4	37.158	52.812	31.373	C.3	1	RAP201	0.000	
8	  O4	41.562	54.093	33.935	O.2	1	RAP201	0.000	
9	  C5	38.560	52.369	31.655	C.3	1	RAP201	0.000	
10	  O5	40.477	51.721	35.710	O.3	1	RAP201	0.000	
11	  C6	38.788	52.301	33.188	C.3	1	RAP201	0.000	
12	  O6	42.433	52.919	36.134	O.3	1	RAP201	0.000	
13	  N7	38.497	53.603	33.801	N.pl3	1	RAP201	0.000	
14	  O7	41.395	47.900	37.002	O.3	1	RAP201	0.000	
15	  C8	39.340	54.358	34.546	C.2	1	RAP201	0.000	
16	  O8	29.500	45.789	35.289	O.2	1	RAP201	0.000	
17	  C9	40.691	53.835	34.778	C.2	1	RAP201	0.000	
18	  O9	29.468	47.205	37.519	O.3	1	RAP201	0.000	
19	 C10	41.017	53.002	36.011	C.3	1	RAP201	0.000	
20	 O10	30.744	48.620	35.478	O.3	1	RAP201	0.000	
21	 C11	40.384	53.557	37.306	C.3	1	RAP201	0.000	
22	 O11	35.441	50.064	33.620	O.2	1	RAP201	0.000	
23	 C12	40.546	52.540	38.443	C.3	1	RAP201	0.000	
24	 O12	29.146	51.631	38.924	O.3	1	RAP201	0.000	
25	 C13	40.056	51.150	38.016	C.3	1	RAP201	0.000	
26	 O13	28.467	53.466	36.835	O.3	1	RAP201	0.000	
27	 C14	40.681	50.715	36.696	C.3	1	RAP201	0.000	
28	 C15	39.913	49.535	36.114	C.3	1	RAP201	0.000	
29	 C16	40.018	48.227	36.886	C.3	1	RAP201	0.000	
30	 C17	39.195	47.122	36.202	C.2	1	RAP201	0.000	
31	 C18	38.134	46.607	36.852	C.2	1	RAP201	0.000	
32	 C19	37.204	45.600	36.291	C.2	1	RAP201	0.000	
33	 C20	36.182	45.140	37.020	C.2	1	RAP201	0.000	
34	 C21	35.239	44.223	36.371	C.2	1	RAP201	0.000	
35	 C22	34.108	43.884	36.982	C.2	1	RAP201	0.000	
36	 C23	33.058	42.993	36.365	C.3	1	RAP201	0.000	
37	 C24	31.727	43.770	36.273	C.3	1	RAP201	0.000	
38	 C25	31.751	45.046	35.439	C.3	1	RAP201	0.000	
39	 C26	30.569	45.880	35.862	C.2	1	RAP201	0.000	
40	 C27	30.730	46.810	37.022	C.3	1	RAP201	0.000	
41	 C28	31.403	48.128	36.648	C.3	1	RAP201	0.000	
42	 C29	32.883	48.014	36.489	C.2	1	RAP201	0.000	
43	 C30	33.476	48.168	35.300	C.2	1	RAP201	0.000	
44	 C31	34.945	48.133	34.962	C.3	1	RAP201	0.000	
45	 C32	35.348	49.574	34.739	C.2	1	RAP201	0.000	
46	 C33	35.655	50.435	35.963	C.3	1	RAP201	0.000	
47	 C34	35.271	51.901	35.817	C.3	1	RAP201	0.000	
48	 C35	35.128	52.607	37.141	C.3	1	RAP201	0.000	
49	 C36	33.949	52.137	37.999	C.3	1	RAP201	0.000	
50	 C37	32.555	52.266	37.346	C.3	1	RAP201	0.000	
51	 C38	31.518	51.858	38.408	C.3	1	RAP201	0.000	
52	 C39	30.092	51.950	37.872	C.3	1	RAP201	0.000	
53	 C40	29.800	53.368	37.390	C.3	1	RAP201	0.000	
54	 C41	30.824	53.772	36.318	C.3	1	RAP201	0.000	
55	 C42	32.246	53.682	36.855	C.3	1	RAP201	0.000	
56	 C43	40.953	54.912	37.702	C.3	1	RAP201	0.000	
57	 C44	39.672	46.560	34.875	C.3	1	RAP201	0.000	
58	 C45	32.857	41.744	37.222	C.3	1	RAP201	0.000	
59	 C46	31.769	44.763	33.927	C.3	1	RAP201	0.000	
60	 C47	33.654	47.754	37.757	C.3	1	RAP201	0.000	
61	 C48	35.197	47.265	33.713	C.3	1	RAP201	0.000	
62	 C49	36.382	52.484	38.038	C.3	1	RAP201	0.000	
63	 C50	41.622	46.782	37.882	C.3	1	RAP201	0.000	
64	 C51	28.928	46.297	38.470	C.3	1	RAP201	0.000	
65	 C52	29.132	50.231	39.281	C.3	1	RAP201	0.000	
@<TRIPOS>BOND
1 1 2 1
2 1 3 1
3 1 4 2
4 3 5 1
5 5 7 1
6 7 9 1
7 9 11 1
8 3 13 1
9 11 13 1
10 6 15 2
11 13 15 1
12 8 17 2
13 15 17 1
14 10 19 1
15 12 19 1
16 17 19 1
17 19 21 1
18 21 23 1
19 23 25 1
20 10 27 1
21 25 27 1
22 27 28 1
23 14 29 1
24 28 29 1
25 29 30 1
26 30 31 2
27 31 32 1
28 32 33 2
29 33 34 1
30 34 35 2
31 35 36 1
32 36 37 1
33 37 38 1
34 16 39 2
35 38 39 1
36 18 40 1
37 39 40 1
38 20 41 1
39 40 41 1
40 41 42 1
41 42 43 2
42 43 44 1
43 22 45 2
44 44 45 1
45 45 46 1
46 2 47 1
47 46 47 1
48 47 48 1
49 48 49 1
50 49 50 1
51 50 51 1
52 24 52 1
53 51 52 1
54 26 53 1
55 52 53 1
56 53 54 1
57 50 55 1
58 54 55 1
59 21 56 1
60 30 57 1
61 36 58 1
62 38 59 1
63 42 60 1
64 44 61 1
65 48 62 1
66 14 63 1
67 18 64 1
68 24 65 1
@<TRIPOS>SUBSTRUCTURE
1	RAP201	1	GROUP	1 A	RAP
