# created with PyMOL 3.1.6.1
@<TRIPOS>MOLECULE
5gpg
65 68 1                 
SMALL
USER_CHARGES
@<TRIPOS>ATOM
1	  C1	-21.196	2.833	7.201	C.2	1	RAP301	0.000	
2	  O1	-19.774	2.663	7.358	O.3	1	RAP301	0.000	
3	  C2	-21.740	3.044	5.812	C.3	1	RAP301	0.000	
4	  O2	-21.918	2.821	8.193	O.co2	1	RAP301	0.000	
5	  C3	-22.854	2.043	5.479	C.3	1	RAP301	0.000	
6	  O3	-20.797	5.218	4.496	O.2	1	RAP301	0.000	
7	  C4	-22.295	0.634	5.329	C.3	1	RAP301	0.000	
8	  O4	-19.789	3.813	1.934	O.2	1	RAP301	0.000	
9	  C5	-21.266	0.664	4.209	C.3	1	RAP301	0.000	
10	  O5	-17.506	3.025	3.897	O.3	1	RAP301	0.000	
11	  C6	-20.140	1.649	4.508	C.3	1	RAP301	0.000	
12	  O6	-17.208	4.427	2.052	O.3	1	RAP301	0.000	
13	  N7	-20.707	2.984	4.764	N.pl3	1	RAP301	0.000	
14	  O7	-14.143	0.569	3.520	O.3	1	RAP301	0.000	
15	  C8	-20.341	4.133	4.169	C.2	1	RAP301	0.000	
16	  O8	-17.187	-2.818	14.805	O.2	1	RAP301	0.000	
17	  C9	-19.385	4.056	3.060	C.2	1	RAP301	0.000	
18	  O9	-17.074	-0.270	15.360	O.3	1	RAP301	0.000	
19	 C10	-17.902	4.240	3.291	C.3	1	RAP301	0.000	
20	 O10	-18.891	-0.777	13.231	O.3	1	RAP301	0.000	
21	 C11	-17.545	5.380	4.238	C.3	1	RAP301	0.000	
22	 O11	-19.425	-0.166	7.925	O.2	1	RAP301	0.000	
23	 C12	-16.054	5.330	4.578	C.3	1	RAP301	0.000	
24	 O12	-19.107	4.106	15.405	O.3	1	RAP301	0.000	
25	 C13	-15.630	3.952	5.077	C.3	1	RAP301	0.000	
26	 O13	-21.939	3.842	15.135	O.3	1	RAP301	0.000	
27	 C14	-16.105	2.875	4.111	C.3	1	RAP301	0.000	
28	 C15	-15.984	1.494	4.732	C.3	1	RAP301	0.000	
29	 C16	-14.569	0.946	4.823	C.3	1	RAP301	0.000	
30	 C17	-14.659	-0.275	5.686	C.2	1	RAP301	0.000	
31	 C18	-14.134	-0.239	6.928	C.2	1	RAP301	0.000	
32	 C19	-14.193	-1.378	7.843	C.2	1	RAP301	0.000	
33	 C20	-13.653	-1.272	9.062	C.2	1	RAP301	0.000	
34	 C21	-13.718	-2.401	9.988	C.2	1	RAP301	0.000	
35	 C22	-13.404	-2.256	11.277	C.2	1	RAP301	0.000	
36	 C23	-13.486	-3.436	12.220	C.3	1	RAP301	0.000	
37	 C24	-14.451	-3.115	13.353	C.3	1	RAP301	0.000	
38	 C25	-15.870	-2.824	12.854	C.3	1	RAP301	0.000	
39	 C26	-16.610	-2.146	13.963	C.2	1	RAP301	0.000	
40	 C27	-16.634	-0.650	14.052	C.3	1	RAP301	0.000	
41	 C28	-17.659	-0.074	13.077	C.3	1	RAP301	0.000	
42	 C29	-17.203	-0.119	11.648	C.2	1	RAP301	0.000	
43	 C30	-17.945	-0.756	10.720	C.2	1	RAP301	0.000	
44	 C31	-17.556	-0.798	9.257	C.3	1	RAP301	0.000	
45	 C32	-18.436	0.198	8.545	C.2	1	RAP301	0.000	
46	 C33	-18.076	1.667	8.657	C.3	1	RAP301	0.000	
47	 C34	-19.306	2.558	8.701	C.3	1	RAP301	0.000	
48	 C35	-18.951	3.969	9.182	C.3	1	RAP301	0.000	
49	 C36	-18.435	4.054	10.623	C.3	1	RAP301	0.000	
50	 C37	-19.411	3.558	11.689	C.3	1	RAP301	0.000	
51	 C38	-18.795	3.898	13.052	C.3	1	RAP301	0.000	
52	 C39	-19.707	3.573	14.226	C.3	1	RAP301	0.000	
53	 C40	-21.076	4.229	14.051	C.3	1	RAP301	0.000	
54	 C41	-21.699	3.831	12.715	C.3	1	RAP301	0.000	
55	 C42	-20.778	4.225	11.559	C.3	1	RAP301	0.000	
56	 C43	-17.902	6.739	3.640	C.3	1	RAP301	0.000	
57	 C44	-15.341	-1.511	5.145	C.3	1	RAP301	0.000	
58	 C45	-12.104	-3.745	12.787	C.3	1	RAP301	0.000	
59	 C46	-16.621	-4.093	12.460	C.3	1	RAP301	0.000	
60	 C47	-15.928	0.591	11.281	C.3	1	RAP301	0.000	
61	 C48	-17.760	-2.195	8.691	C.3	1	RAP301	0.000	
62	 C49	-17.931	4.637	8.262	C.3	1	RAP301	0.000	
63	 C50	-12.840	-0.028	3.540	C.3	1	RAP301	0.000	
64	 C51	-16.003	0.116	16.229	C.3	1	RAP301	0.000	
65	 C52	-18.181	3.191	15.983	C.3	1	RAP301	0.000	
@<TRIPOS>BOND
1 1 2 1
2 1 3 1
3 1 4 2
4 3 5 1
5 5 7 1
6 7 9 1
7 9 11 1
8 3 13 1
9 11 13 1
10 6 15 2
11 13 15 1
12 8 17 2
13 15 17 1
14 10 19 1
15 12 19 1
16 17 19 1
17 19 21 1
18 21 23 1
19 23 25 1
20 10 27 1
21 25 27 1
22 27 28 1
23 14 29 1
24 28 29 1
25 29 30 1
26 30 31 2
27 31 32 1
28 32 33 2
29 33 34 1
30 34 35 2
31 35 36 1
32 36 37 1
33 37 38 1
34 16 39 2
35 38 39 1
36 18 40 1
37 39 40 1
38 20 41 1
39 40 41 1
40 41 42 1
41 42 43 2
42 43 44 1
43 22 45 2
44 44 45 1
45 45 46 1
46 2 47 1
47 46 47 1
48 47 48 1
49 48 49 1
50 49 50 1
51 50 51 1
52 24 52 1
53 51 52 1
54 26 53 1
55 52 53 1
56 53 54 1
57 50 55 1
58 54 55 1
59 21 56 1
60 30 57 1
61 36 58 1
62 38 59 1
63 42 60 1
64 44 61 1
65 48 62 1
66 14 63 1
67 18 64 1
68 24 65 1
@<TRIPOS>SUBSTRUCTURE
1	RAP301	1	GROUP	1 A	RAP
