# created with PyMOL 3.1.6.1
@<TRIPOS>MOLECULE
3gi6
46 49 1                 
SMALL
USER_CHARGES
@<TRIPOS>ATOM
1	  C2	15.658	34.823	17.642	C.2	1	D78200	0.000	
2	  C3	16.649	35.422	16.843	C.2	1	D78200	0.000	
3	  C4	17.380	34.646	15.935	C.2	1	D78200	0.000	
4	  C5	17.137	33.276	15.791	C.2	1	D78200	0.000	
5	  C6	16.147	32.698	16.588	C.2	1	D78200	0.000	
6	  C7	15.415	33.464	17.503	C.2	1	D78200	0.000	
7	  S8	18.001	32.380	14.754	S.O2	1	D78200	0.000	
8	  O9	18.530	33.221	13.705	O.2	1	D78200	0.000	
9	 O10	17.175	31.354	14.209	O.2	1	D78200	0.000	
10	 N11	19.317	31.742	15.477	N.3	1	D78200	0.000	
11	 C12	20.050	32.740	16.291	C.3	1	D78200	0.000	
12	 C13	21.546	32.394	16.342	C.3	1	D78200	0.000	
13	 C14	22.184	32.332	14.954	C.3	1	D78200	0.000	
14	 C15	22.287	33.394	17.217	C.3	1	D78200	0.000	
15	 C16	19.069	30.474	16.199	C.3	1	D78200	0.000	
16	 C17	19.910	29.334	15.616	C.3	1	D78200	0.000	
17	 C18	15.093	36.909	18.842	C.3	1	D78200	0.000	
18	 O18	19.811	28.218	16.518	O.3	1	D78200	0.000	
19	 C19	19.455	29.009	14.189	C.3	1	D78200	0.000	
20	 O19	14.913	35.512	18.565	O.3	1	D78200	0.000	
21	 N20	20.367	28.151	13.425	N.pl3	1	D78200	0.000	
22	 C21	21.091	28.600	12.391	C.2	1	D78200	0.000	
23	 O22	21.150	29.772	12.035	O.2	1	D78200	0.000	
24	 N24	21.110	26.040	10.013	N.pl3	1	D78200	0.000	
25	 C25	21.227	27.475	10.218	C.3	1	D78200	0.000	
26	 C26	21.493	25.360	11.106	C.2	1	D78200	0.000	
27	 O27	21.615	24.161	11.298	O.co2	1	D78200	0.000	
28	 O28	21.837	26.260	12.180	O.3	1	D78200	0.000	
29	 C29	21.876	27.581	11.609	C.3	1	D78200	0.000	
30	 C32	18.136	28.220	14.113	C.3	1	D78200	0.000	
31	 C33	17.935	26.587	12.180	C.2	1	D78200	0.000	
32	 C34	17.644	26.286	10.854	C.2	1	D78200	0.000	
33	 C35	17.206	27.278	9.984	C.2	1	D78200	0.000	
34	 C36	17.063	28.573	10.456	C.2	1	D78200	0.000	
35	 C37	17.358	28.883	11.789	C.2	1	D78200	0.000	
36	 C38	17.794	27.891	12.664	C.2	1	D78200	0.000	
37	 C40	19.951	24.488	6.268	C.2	1	D78200	0.000	
38	 C41	19.521	25.759	6.653	C.2	1	D78200	0.000	
39	 C42	19.915	26.270	7.901	C.2	1	D78200	0.000	
40	 C43	20.725	25.522	8.790	C.2	1	D78200	0.000	
41	 C44	21.137	24.252	8.367	C.2	1	D78200	0.000	
42	 C45	20.745	23.738	7.124	C.2	1	D78200	0.000	
43	 C46	18.643	26.569	5.722	C.3	1	D78200	0.000	
44	  F1	17.383	26.482	6.088	 F	1	D78200	0.000	
45	  F2	18.716	26.128	4.491	 F	1	D78200	0.000	
46	  F3	18.995	27.838	5.726	 F	1	D78200	0.000	
@<TRIPOS>BOND
1 1 2 2
2 2 3 1
3 3 4 2
4 4 5 1
5 1 6 1
6 5 6 2
7 4 7 1
8 7 8 2
9 7 9 2
10 7 10 1
11 10 11 1
12 11 12 1
13 12 13 1
14 12 14 1
15 10 15 1
16 15 16 1
17 16 18 1
18 16 19 1
19 1 20 1
20 17 20 1
21 19 21 1
22 21 22 1
23 22 23 2
24 24 25 1
25 24 26 1
26 26 27 2
27 26 28 1
28 22 29 1
29 25 29 1
30 28 29 1
31 19 30 1
32 31 32 1
33 32 33 2
34 33 34 1
35 34 35 2
36 30 36 1
37 31 36 2
38 35 36 1
39 37 38 1
40 38 39 2
41 24 40 1
42 39 40 1
43 40 41 2
44 37 42 2
45 41 42 1
46 38 43 1
47 43 44 1
48 43 45 1
49 43 46 1
@<TRIPOS>SUBSTRUCTURE
1	D78200	1	GROUP	1 A	D78
