# created with PyMOL 3.1.6.1
@<TRIPOS>MOLECULE
3o99
39 42 1                 
SMALL
USER_CHARGES
@<TRIPOS>ATOM
1	  N1	14.290	34.956	18.117	N.pl3	1	K13200	0.000	
2	  C2	15.185	34.377	17.294	C.2	1	K13200	0.000	
3	  C3	16.276	35.095	16.797	C.2	1	K13200	0.000	
4	  C4	17.169	34.445	15.935	C.2	1	K13200	0.000	
5	  C5	16.987	33.105	15.577	C.2	1	K13200	0.000	
6	  C6	15.896	32.423	16.090	C.2	1	K13200	0.000	
7	  C7	14.995	33.057	16.939	C.2	1	K13200	0.000	
8	  S8	18.016	32.317	14.606	S.O2	1	K13200	0.000	
9	  O9	17.356	31.241	13.941	O.2	1	K13200	0.000	
10	 O10	18.597	33.213	13.653	O.2	1	K13200	0.000	
11	 N11	19.277	31.720	15.430	N.3	1	K13200	0.000	
12	 C12	19.972	32.746	16.246	C.3	1	K13200	0.000	
13	 C13	21.469	32.451	16.310	C.3	1	K13200	0.000	
14	 C14	22.147	32.436	14.933	C.3	1	K13200	0.000	
15	 C15	22.143	33.430	17.283	C.3	1	K13200	0.000	
16	 C16	18.985	30.477	16.157	C.3	1	K13200	0.000	
17	 C17	19.910	29.386	15.607	C.3	1	K13200	0.000	
18	 C18	22.151	34.852	16.780	C.3	1	K13200	0.000	
19	 O18	19.866	28.259	16.493	O.3	1	K13200	0.000	
20	 C19	19.570	28.953	14.174	C.3	1	K13200	0.000	
21	 N20	20.678	28.151	13.703	N.pl3	1	K13200	0.000	
22	 C21	21.555	28.501	12.773	C.2	1	K13200	0.000	
23	 O22	21.597	29.546	12.162	O.co2	1	K13200	0.000	
24	 O23	22.534	27.480	12.530	O.3	1	K13200	0.000	
25	 C24	23.388	27.535	11.406	C.3	1	K13200	0.000	
26	 C25	24.690	26.911	11.874	C.3	1	K13200	0.000	
27	 O26	24.515	25.503	11.657	O.3	1	K13200	0.000	
28	 C27	23.551	25.283	10.626	C.3	1	K13200	0.000	
29	 O28	22.499	24.435	11.071	O.3	1	K13200	0.000	
30	 C29	21.250	25.123	11.112	C.3	1	K13200	0.000	
31	 C30	21.429	26.330	10.206	C.3	1	K13200	0.000	
32	 C31	22.918	26.620	10.292	C.3	1	K13200	0.000	
33	 C32	18.267	28.153	14.040	C.3	1	K13200	0.000	
34	 C33	18.172	26.422	12.190	C.2	1	K13200	0.000	
35	 C34	17.998	26.069	10.863	C.2	1	K13200	0.000	
36	 C35	17.647	27.014	9.913	C.2	1	K13200	0.000	
37	 C36	17.515	28.328	10.313	C.2	1	K13200	0.000	
38	 C37	17.694	28.680	11.643	C.2	1	K13200	0.000	
39	 C38	18.038	27.742	12.595	C.2	1	K13200	0.000	
@<TRIPOS>BOND
1 1 2 1
2 2 3 2
3 3 4 1
4 4 5 2
5 5 6 1
6 2 7 1
7 6 7 2
8 5 8 1
9 8 9 2
10 8 10 2
11 8 11 1
12 11 12 1
13 12 13 1
14 13 14 1
15 13 15 1
16 11 16 1
17 16 17 1
18 15 18 1
19 17 19 1
20 17 20 1
21 20 21 1
22 21 22 1
23 22 23 2
24 22 24 1
25 24 25 1
26 25 26 1
27 26 27 1
28 27 28 1
29 28 29 1
30 29 30 1
31 30 31 1
32 25 32 1
33 28 32 1
34 31 32 1
35 20 33 1
36 34 35 2
37 35 36 1
38 36 37 2
39 37 38 1
40 33 39 1
41 34 39 1
42 38 39 2
@<TRIPOS>SUBSTRUCTURE
1	K13200	1	GROUP	1 A	K13
