# created with PyMOL 3.1.6.1
@<TRIPOS>MOLECULE
6uwc
92 100 1                
SMALL
USER_CHARGES
@<TRIPOS>ATOM
1	 C01	-17.455	-0.098	5.730	C.3	1	QK1400	0.000	
2	 C01	-17.403	0.110	-5.820	C.3	1	QK1400	0.000	
3	  C1	-17.689	2.429	-8.525	C.2	1	QK1400	0.000	
4	  C1	-17.694	-2.439	8.509	C.2	1	QK1400	0.000	
5	  N1	-18.442	1.390	-8.190	N.2	1	QK1400	0.000	
6	  N1	-18.428	-1.371	8.192	N.2	1	QK1400	0.000	
7	 O01	-18.668	-1.409	7.391	O.3	1	QK1400	0.000	
8	 O01	-18.648	1.381	-7.479	O.3	1	QK1400	0.000	
9	  S1	-16.778	2.850	-7.229	S.3	1	QK1400	0.000	
10	  S1	-16.833	-2.879	7.220	S.3	1	QK1400	0.000	
11	 C02	-18.768	-0.260	6.507	C.3	1	QK1400	0.000	
12	 C02	-18.723	0.244	-6.588	C.3	1	QK1400	0.000	
13	  C2	-18.270	0.965	-6.926	C.2	1	QK1400	0.000	
14	  C2	-18.272	-0.942	6.921	C.2	1	QK1400	0.000	
15	  N2	-17.699	3.017	-9.722	N.pl3	1	QK1400	0.000	
16	  N2	-17.693	-3.038	9.703	N.pl3	1	QK1400	0.000	
17	  C3	-18.885	-0.055	-6.328	C.2	1	QK1400	0.000	
18	  C3	-18.867	0.099	6.328	C.2	1	QK1400	0.000	
19	  C4	-18.605	-0.393	-5.010	C.2	1	QK1400	0.000	
20	  C4	-18.599	0.432	5.006	C.2	1	QK1400	0.000	
21	  C5	-17.661	0.360	-4.331	C.2	1	QK1400	0.000	
22	  C5	-17.692	-0.350	4.301	C.2	1	QK1400	0.000	
23	 C06	-16.997	-3.687	0.037	C.2	1	QK1400	0.000	
24	 C06	-16.964	3.624	-0.245	C.2	1	QK1400	0.000	
25	  C6	-17.040	1.411	-4.983	C.2	1	QK1400	0.000	
26	  C6	-17.098	-1.418	4.951	C.2	1	QK1400	0.000	
27	 C07	-18.343	-3.617	0.376	C.2	1	QK1400	0.000	
28	 C07	-18.323	3.616	-0.523	C.2	1	QK1400	0.000	
29	 C08	-18.885	-4.505	1.302	C.2	1	QK1400	0.000	
30	 C08	-18.867	4.536	-1.415	C.2	1	QK1400	0.000	
31	  S8	-17.305	-0.001	-2.689	S.O2	1	QK1400	0.000	
32	  S8	-17.330	0.008	2.604	S.O2	1	QK1400	0.000	
33	  O9	-17.457	-1.515	-2.502	O.2	1	QK1400	0.000	
34	  O9	-17.472	1.526	2.429	O.2	1	QK1400	0.000	
35	 O10	-15.902	0.432	-2.329	O.2	1	QK1400	0.000	
36	 O10	-15.928	-0.419	2.241	O.2	1	QK1400	0.000	
37	 N11	-18.378	0.838	-1.658	N.3	1	QK1400	0.000	
38	 N11	-18.380	-0.781	1.538	N.3	1	QK1400	0.000	
39	 C12	-18.517	2.249	-2.074	C.3	1	QK1400	0.000	
40	 C12	-18.488	-2.216	1.848	C.3	1	QK1400	0.000	
41	 C13	-18.773	3.161	-0.866	C.3	1	QK1400	0.000	
42	 C13	-18.753	-3.025	0.572	C.3	1	QK1400	0.000	
43	 C14	-17.720	2.890	0.205	C.3	1	QK1400	0.000	
44	 C14	-17.658	-2.725	-0.456	C.3	1	QK1400	0.000	
45	 C15	-18.697	4.636	-1.295	C.3	1	QK1400	0.000	
46	 C15	-18.762	-4.524	0.909	C.3	1	QK1400	0.000	
47	 C16	-19.691	0.181	-1.547	C.3	1	QK1400	0.000	
48	 C16	-19.712	-0.147	1.443	C.3	1	QK1400	0.000	
49	 C17	-19.958	-0.186	-0.082	C.3	1	QK1400	0.000	
50	 C17	-19.991	0.195	-0.027	C.3	1	QK1400	0.000	
51	 O18	-21.239	-0.771	0.032	O.3	1	QK1400	0.000	
52	 O18	-21.294	0.737	-0.187	O.3	1	QK1400	0.000	
53	 C19	-18.935	-1.210	0.398	C.3	1	QK1400	0.000	
54	 C19	-18.968	1.221	-0.523	C.3	1	QK1400	0.000	
55	 N20	-19.088	-1.392	1.839	N.pl3	1	QK1400	0.000	
56	 N20	-19.143	1.400	-1.965	N.pl3	1	QK1400	0.000	
57	 C21	-18.133	-1.145	2.733	C.2	1	QK1400	0.000	
58	 C21	-18.177	1.153	-2.855	C.2	1	QK1400	0.000	
59	 O22	-17.034	-0.690	2.403	O.co2	1	QK1400	0.000	
60	 O22	-17.074	0.721	-2.511	O.co2	1	QK1400	0.000	
61	 O23	-18.427	-1.396	4.024	O.3	1	QK1400	0.000	
62	 O23	-18.455	1.380	-4.151	O.3	1	QK1400	0.000	
63	 C24	-17.292	-1.327	4.876	C.3	1	QK1400	0.000	
64	 C24	-17.287	1.346	-4.972	C.3	1	QK1400	0.000	
65	 C27	-18.444	-2.668	6.678	C.3	1	QK1400	0.000	
66	 C27	-18.452	2.646	-6.792	C.3	1	QK1400	0.000	
67	 O28	-19.455	-3.084	5.735	O.3	1	QK1400	0.000	
68	 O28	-19.470	3.029	-5.861	O.3	1	QK1400	0.000	
69	 C29	-18.850	-4.246	5.129	C.3	1	QK1400	0.000	
70	 C29	-18.900	4.223	-5.264	C.3	1	QK1400	0.000	
71	 C30	-17.361	-3.859	4.983	C.3	1	QK1400	0.000	
72	 C30	-17.399	3.883	-5.115	C.3	1	QK1400	0.000	
73	 C31	-17.226	-2.562	5.789	C.3	1	QK1400	0.000	
74	 C31	-17.237	2.575	-5.898	C.3	1	QK1400	0.000	
75	 C32	-19.237	-2.554	-0.257	C.3	1	QK1400	0.000	
76	 C32	-19.219	2.575	0.146	C.3	1	QK1400	0.000	
77	 C33	-16.192	-4.653	0.621	C.2	1	QK1400	0.000	
78	 C33	-16.149	4.563	-0.853	C.2	1	QK1400	0.000	
79	 C34	-18.077	-5.468	1.885	C.2	1	QK1400	0.000	
80	 C34	-18.046	5.470	-2.030	C.2	1	QK1400	0.000	
81	 C35	-16.735	-5.543	1.546	C.2	1	QK1400	0.000	
82	 C35	-16.686	5.483	-1.742	C.2	1	QK1400	0.000	
83	 C40	-17.352	1.686	-6.245	C.2	1	QK1400	0.000	
84	 C40	-17.390	-1.687	6.223	C.2	1	QK1400	0.000	
85	 C41	-16.732	4.062	-10.073	C.3	1	QK1400	0.000	
86	 C41	-16.823	-4.180	10.018	C.3	1	QK1400	0.000	
87	 C50	-16.359	3.951	-11.557	C.3	1	QK1400	0.000	
88	 C50	-16.489	-4.155	11.514	C.3	1	QK1400	0.000	
89	 C60	-17.352	5.424	-9.768	C.3	1	QK1400	0.000	
90	 C60	-17.535	-5.486	9.655	C.3	1	QK1400	0.000	
91	 F01	-15.980	-6.458	2.117	 F	1	QK1400	0.000	
92	 F01	-15.892	6.373	-2.321	 F	1	QK1400	0.000	
@<TRIPOS>BOND
1 3 5 2
2 4 6 2
3 3 9 1
4 4 10 1
5 1 11 1
6 7 11 1
7 2 12 1
8 8 12 1
9 5 13 1
10 6 14 1
11 3 15 1
12 4 16 1
13 13 17 2
14 14 18 2
15 17 19 1
16 18 20 1
17 19 21 2
18 20 22 2
19 21 25 1
20 22 26 1
21 23 27 2
22 24 28 2
23 27 29 1
24 28 30 1
25 21 31 1
26 22 32 1
27 31 33 2
28 32 34 2
29 31 35 2
30 32 36 2
31 31 37 1
32 32 38 1
33 37 39 1
34 38 40 1
35 39 41 1
36 40 42 1
37 41 43 1
38 42 44 1
39 41 45 1
40 42 46 1
41 37 47 1
42 38 48 1
43 47 49 1
44 48 50 1
45 49 51 1
46 50 52 1
47 49 53 1
48 50 54 1
49 53 55 1
50 54 56 1
51 55 57 1
52 56 58 1
53 57 59 2
54 58 60 2
55 57 61 1
56 58 62 1
57 1 63 1
58 61 63 1
59 2 64 1
60 62 64 1
61 7 65 1
62 8 66 1
63 65 67 1
64 66 68 1
65 67 69 1
66 68 70 1
67 69 71 1
68 70 72 1
69 63 73 1
70 65 73 1
71 71 73 1
72 64 74 1
73 66 74 1
74 72 74 1
75 27 75 1
76 53 75 1
77 28 76 1
78 54 76 1
79 23 77 1
80 24 78 1
81 29 79 2
82 30 80 2
83 77 81 2
84 79 81 1
85 78 82 2
86 80 82 1
87 9 83 1
88 13 83 1
89 25 83 2
90 10 84 1
91 14 84 1
92 26 84 2
93 15 85 1
94 16 86 1
95 85 87 1
96 86 88 1
97 85 89 1
98 86 90 1
99 81 91 1
100 82 92 1
@<TRIPOS>SUBSTRUCTURE
1	QK1400	1	GROUP	1 B	QK1
