# created with PyMOL 3.1.6.1
@<TRIPOS>MOLECULE
6dgy
78 81 1                 
SMALL
USER_CHARGES
@<TRIPOS>ATOM
1	  N1	65.487	51.760	12.651	N.pl3	1	K13103	0.000	
2	  C2	66.421	52.420	13.525	C.2	1	K13103	0.000	
3	  C3	66.197	53.876	13.891	C.2	1	K13103	0.000	
4	  C4	67.172	54.584	14.810	C.2	1	K13103	0.000	
5	  C5	68.361	53.817	15.366	C.2	1	K13103	0.000	
6	  C6	68.597	52.363	15.001	C.2	1	K13103	0.000	
7	  C7	67.619	51.659	14.078	C.2	1	K13103	0.000	
8	  S8	69.514	54.685	16.443	S.O2	1	K13103	0.000	
9	  O9	68.840	55.778	17.150	O.2	1	K13103	0.000	
10	 O10	70.038	53.838	17.512	O.2	1	K13103	0.000	
11	 N11	70.751	55.267	15.428	N.3	1	K13103	0.000	
12	 C12	71.480	54.218	14.736	C.3	1	K13103	0.000	
13	 C13	72.962	54.550	14.608	C.3	1	K13103	0.000	
14	 C14	73.622	54.582	15.987	C.3	1	K13103	0.000	
15	 C15	73.615	53.486	13.725	C.3	1	K13103	0.000	
16	 C16	70.466	56.504	14.725	C.3	1	K13103	0.000	
17	 C17	71.370	57.616	15.254	C.3	1	K13103	0.000	
18	 C18	73.677	52.129	14.429	C.3	1	K13103	0.000	
19	 O18	71.242	58.747	14.440	O.3	1	K13103	0.000	
20	 C19	71.008	57.983	16.689	C.3	1	K13103	0.000	
21	 N20	71.984	58.951	17.139	N.pl3	1	K13103	0.000	
22	 C21	72.975	58.646	18.140	C.2	1	K13103	0.000	
23	 O22	72.986	57.604	18.720	O.co2	1	K13103	0.000	
24	 O23	73.910	59.655	18.365	O.3	1	K13103	0.000	
25	 C24	74.784	59.573	19.580	C.3	1	K13103	0.000	
26	 C25	75.932	60.007	19.255	C.3	1	K13103	0.000	
27	 O26	75.736	61.633	19.221	O.3	1	K13103	0.000	
28	 C27	74.926	61.921	20.185	C.3	1	K13103	0.000	
29	 O28	73.706	62.772	19.677	O.3	1	K13103	0.000	
30	 C29	72.674	61.956	19.637	C.3	1	K13103	0.000	
31	 C30	72.995	60.762	20.690	C.3	1	K13103	0.000	
32	 C31	74.326	60.587	20.663	C.3	1	K13103	0.000	
33	 C32	69.648	58.673	16.781	C.3	1	K13103	0.000	
34	 C33	69.539	60.620	18.568	C.2	1	K13103	0.000	
35	 C34	69.331	61.082	20.007	C.2	1	K13103	0.000	
36	 C35	69.017	60.066	21.099	C.2	1	K13103	0.000	
37	 C36	68.913	58.585	20.752	C.2	1	K13103	0.000	
38	 C37	69.121	58.123	19.311	C.2	1	K13103	0.000	
39	 C38	69.435	59.140	18.218	C.2	1	K13103	0.000	
40	 HN1	65.755	51.127	12.134	 H	1	K13103	0.000	
41	HN1A	64.661	51.999	12.645	 H	1	K13103	0.000	
42	HN20	71.973	59.739	16.795	 H	1	K13103	0.000	
43	HO18	71.948	59.217	14.496	 H	1	K13103	0.000	
44	  H3	65.463	54.334	13.549	 H	1	K13103	0.000	
45	  H4	67.041	55.477	15.037	 H	1	K13103	0.000	
46	  H6	69.333	51.907	15.342	 H	1	K13103	0.000	
47	  H7	67.750	50.767	13.852	 H	1	K13103	0.000	
48	 H12	71.104	54.104	13.849	 H	1	K13103	0.000	
49	 H13	73.060	55.418	14.187	 H	1	K13103	0.000	
50	 H14	73.494	55.457	16.387	 H	1	K13103	0.000	
51	 H15	74.517	53.769	13.504	 H	1	K13103	0.000	
52	 H16	70.627	56.381	13.776	 H	1	K13103	0.000	
53	 H17	72.291	57.312	15.229	 H	1	K13103	0.000	
54	 H18	72.779	51.843	14.657	 H	1	K13103	0.000	
55	 H19	71.028	57.196	17.255	 H	1	K13103	0.000	
56	 H24	74.832	58.671	19.933	 H	1	K13103	0.000	
57	 H25	76.588	59.758	19.924	 H	1	K13103	0.000	
58	 H27	75.390	62.372	20.908	 H	1	K13103	0.000	
59	 H29	72.572	61.592	18.744	 H	1	K13103	0.000	
60	 H30	72.547	59.947	20.414	 H	1	K13103	0.000	
61	 H31	74.667	60.344	21.538	 H	1	K13103	0.000	
62	 H32	68.948	58.048	16.534	 H	1	K13103	0.000	
63	 H33	69.732	61.242	17.904	 H	1	K13103	0.000	
64	 H34	69.394	61.985	20.219	 H	1	K13103	0.000	
65	 H35	68.889	60.349	21.976	 H	1	K13103	0.000	
66	 H36	68.721	57.964	21.417	 H	1	K13103	0.000	
67	 H37	69.058	57.219	19.100	 H	1	K13103	0.000	
68	H12A	71.383	53.388	15.228	 H	1	K13103	0.000	
69	H14A	73.220	53.906	16.554	 H	1	K13103	0.000	
70	H14B	74.571	54.405	15.896	 H	1	K13103	0.000	
71	H15A	73.102	53.396	12.907	 H	1	K13103	0.000	
72	H16A	69.538	56.749	14.866	 H	1	K13103	0.000	
73	H18A	74.207	52.208	15.237	 H	1	K13103	0.000	
74	H18B	74.084	51.477	13.838	 H	1	K13103	0.000	
75	H25A	76.186	59.677	18.379	 H	1	K13103	0.000	
76	H29A	71.869	62.426	19.905	 H	1	K13103	0.000	
77	H30A	72.711	61.019	21.581	 H	1	K13103	0.000	
78	H32A	69.628	59.437	16.184	 H	1	K13103	0.000	
@<TRIPOS>BOND
1 1 2 1
2 2 3 2
3 3 4 1
4 4 5 2
5 5 6 1
6 2 7 1
7 6 7 2
8 5 8 1
9 8 9 2
10 8 10 2
11 8 11 1
12 11 12 1
13 12 13 1
14 13 14 1
15 13 15 1
16 11 16 1
17 16 17 1
18 15 18 1
19 17 19 1
20 17 20 1
21 20 21 1
22 21 22 1
23 22 23 2
24 22 24 1
25 24 25 1
26 25 26 1
27 26 27 1
28 27 28 1
29 28 29 1
30 29 30 1
31 30 31 1
32 25 32 1
33 28 32 1
34 31 32 1
35 20 33 1
36 34 35 2
37 35 36 1
38 36 37 2
39 37 38 1
40 33 39 1
41 34 39 1
42 38 39 2
43 1 40 1
44 1 41 1
45 21 42 1
46 19 43 1
47 3 44 1
48 4 45 1
49 6 46 1
50 7 47 1
51 12 48 1
52 13 49 1
53 14 50 1
54 15 51 1
55 16 52 1
56 17 53 1
57 18 54 1
58 20 55 1
59 25 56 1
60 26 57 1
61 28 58 1
62 30 59 1
63 31 60 1
64 32 61 1
65 33 62 1
66 34 63 1
67 35 64 1
68 36 65 1
69 37 66 1
70 38 67 1
71 12 68 1
72 14 69 1
73 14 70 1
74 15 71 1
75 16 72 1
76 18 73 1
77 18 74 1
78 26 75 1
79 30 76 1
80 31 77 1
81 33 78 1
@<TRIPOS>SUBSTRUCTURE
1	K13103	1	GROUP	1 A	K13
