# created with PyMOL 3.1.6.1
@<TRIPOS>MOLECULE
3mxe
47 51 1                 
SMALL
USER_CHARGES
@<TRIPOS>ATOM
1	  C1	15.490	36.759	18.347	C.2	1	K54200	0.000	
2	  N1	15.030	35.496	18.429	N.2	1	K54200	0.000	
3	  S1	16.783	37.020	17.227	S.3	1	K54200	0.000	
4	  C2	15.665	34.652	17.571	C.2	1	K54200	0.000	
5	  C3	16.641	35.345	16.859	C.2	1	K54200	0.000	
6	  C4	17.429	34.635	15.920	C.2	1	K54200	0.000	
7	  C5	17.252	33.241	15.679	C.2	1	K54200	0.000	
8	  C6	16.255	32.591	16.399	C.2	1	K54200	0.000	
9	  C7	15.480	33.292	17.333	C.2	1	K54200	0.000	
10	  S8	18.146	32.367	14.623	S.O2	1	K54200	0.000	
11	  O9	17.390	31.278	14.062	O.2	1	K54200	0.000	
12	 O10	18.656	33.230	13.608	O.2	1	K54200	0.000	
13	 N11	19.447	31.720	15.343	N.3	1	K54200	0.000	
14	 C12	20.236	32.712	16.107	C.3	1	K54200	0.000	
15	 C13	21.720	32.339	16.158	C.3	1	K54200	0.000	
16	 C14	22.341	32.306	14.760	C.3	1	K54200	0.000	
17	 C15	22.486	33.339	17.023	C.3	1	K54200	0.000	
18	 C16	19.171	30.461	16.082	C.3	1	K54200	0.000	
19	 C17	20.028	29.332	15.491	C.3	1	K54200	0.000	
20	 O18	19.919	28.147	16.292	O.3	1	K54200	0.000	
21	 C19	19.638	29.026	14.052	C.3	1	K54200	0.000	
22	 N20	20.642	28.169	13.427	N.pl3	1	K54200	0.000	
23	 C21	21.363	28.592	12.378	C.2	1	K54200	0.000	
24	 O22	21.325	29.719	11.912	O.2	1	K54200	0.000	
25	 N24	22.205	26.016	10.057	N.pl3	1	K54200	0.000	
26	 C25	21.899	27.440	10.256	C.3	1	K54200	0.000	
27	 C26	22.173	25.343	11.287	C.2	1	K54200	0.000	
28	 O27	22.190	24.132	11.440	O.co2	1	K54200	0.000	
29	 O28	22.156	26.315	12.356	O.3	1	K54200	0.000	
30	 C29	22.283	27.610	11.743	C.3	1	K54200	0.000	
31	 C32	18.325	28.229	13.915	C.3	1	K54200	0.000	
32	 C33	18.274	26.518	12.056	C.2	1	K54200	0.000	
33	 C34	18.072	26.171	10.722	C.2	1	K54200	0.000	
34	 C35	17.691	27.126	9.791	C.2	1	K54200	0.000	
35	 C36	17.507	28.441	10.200	C.2	1	K54200	0.000	
36	 C37	17.705	28.794	11.538	C.2	1	K54200	0.000	
37	 C38	18.088	27.838	12.466	C.2	1	K54200	0.000	
38	 C40	21.872	23.604	6.657	C.2	1	K54200	0.000	
39	 C41	23.114	23.960	7.176	C.2	1	K54200	0.000	
40	 C42	23.202	24.772	8.313	C.2	1	K54200	0.000	
41	 C43	22.038	25.216	8.914	C.2	1	K54200	0.000	
42	 C44	20.792	24.862	8.402	C.2	1	K54200	0.000	
43	 C45	20.702	24.054	7.262	C.2	1	K54200	0.000	
44	 C46	24.526	25.175	8.891	C.3	1	K54200	0.000	
45	  F1	24.543	26.489	8.997	 F	1	K54200	0.000	
46	  F2	24.722	24.658	10.102	 F	1	K54200	0.000	
47	  F3	25.493	24.810	8.068	 F	1	K54200	0.000	
@<TRIPOS>BOND
1 1 2 2
2 1 3 1
3 2 4 1
4 3 5 1
5 4 5 2
6 5 6 1
7 6 7 2
8 7 8 1
9 4 9 1
10 8 9 2
11 7 10 1
12 10 11 2
13 10 12 2
14 10 13 1
15 13 14 1
16 14 15 1
17 15 16 1
18 15 17 1
19 13 18 1
20 18 19 1
21 19 20 1
22 19 21 1
23 21 22 1
24 22 23 1
25 23 24 2
26 25 26 1
27 25 27 1
28 27 28 2
29 27 29 1
30 23 30 1
31 26 30 1
32 29 30 1
33 21 31 1
34 32 33 2
35 33 34 1
36 34 35 2
37 35 36 1
38 31 37 1
39 32 37 1
40 36 37 2
41 38 39 2
42 39 40 1
43 25 41 1
44 40 41 2
45 41 42 1
46 38 43 1
47 42 43 2
48 40 44 1
49 44 45 1
50 44 46 1
51 44 47 1
@<TRIPOS>SUBSTRUCTURE
1	K54200	1	GROUP	1 A	K54
