# created with PyMOL 3.1.6.1
@<TRIPOS>MOLECULE
2i4w
49 52 1                 
SMALL
USER_CHARGES
@<TRIPOS>ATOM
1	   N	13.540	22.094	17.976	N.pl3	1	KGQ300	0.000	
2	   C	11.937	17.944	18.489	C.3	1	KGQ300	0.000	
3	   O	12.109	19.113	12.655	O.3	1	KGQ300	0.000	
4	   P	11.402	16.616	12.095	P.3	1	KGQ300	0.000	
5	  C1	11.380	18.467	17.129	C.3	1	KGQ300	0.000	
6	  N1	17.397	24.183	17.646	N.3	1	KGQ300	0.000	
7	  O1	10.812	17.108	10.823	O.3	1	KGQ300	0.000	
8	  C2	10.197	19.340	17.577	C.3	1	KGQ300	0.000	
9	  O2	10.208	15.811	12.700	O.2	1	KGQ300	0.000	
10	  C3	12.331	18.689	20.689	C.3	1	KGQ300	0.000	
11	  O3	12.533	15.527	11.996	O.3	1	KGQ300	0.000	
12	  C4	13.915	20.790	18.316	C.2	1	KGQ300	0.000	
13	  O4	10.935	18.890	20.520	O.3	1	KGQ300	0.000	
14	  C5	12.948	18.826	19.286	C.3	1	KGQ300	0.000	
15	  O5	21.156	29.191	14.500	O.3	1	KGQ300	0.000	
16	  C6	14.551	22.918	17.351	C.3	1	KGQ300	0.000	
17	  O6	12.852	20.189	18.868	O.3	1	KGQ300	0.000	
18	  C7	14.997	24.071	18.283	C.3	1	KGQ300	0.000	
19	  O7	15.020	20.289	18.125	O.co2	1	KGQ300	0.000	
20	  C8	13.890	23.462	16.018	C.3	1	KGQ300	0.000	
21	  O8	13.904	24.920	18.604	O.3	1	KGQ300	0.000	
22	  C9	13.424	22.328	15.136	C.2	1	KGQ300	0.000	
23	  O9	16.772	24.001	15.085	O.2	1	KGQ300	0.000	
24	 C10	12.069	21.944	15.097	C.2	1	KGQ300	0.000	
25	 O10	18.829	22.950	15.841	O.2	1	KGQ300	0.000	
26	 C11	14.320	21.619	14.329	C.2	1	KGQ300	0.000	
27	 O11	9.567	18.606	18.622	O.3	1	KGQ300	0.000	
28	 C12	11.613	20.884	14.286	C.2	1	KGQ300	0.000	
29	 C13	13.899	20.557	13.507	C.2	1	KGQ300	0.000	
30	 C14	12.528	20.163	13.467	C.2	1	KGQ300	0.000	
31	 C15	11.918	17.828	13.272	C.3	1	KGQ300	0.000	
32	 C16	10.255	16.039	10.048	C.3	1	KGQ300	0.000	
33	 C17	9.564	16.625	8.798	C.3	1	KGQ300	0.000	
34	 C18	13.802	16.140	11.759	C.3	1	KGQ300	0.000	
35	 C19	14.900	15.058	11.656	C.3	1	KGQ300	0.000	
36	 C20	16.122	24.909	17.643	C.3	1	KGQ300	0.000	
37	 C21	18.304	25.006	18.472	C.3	1	KGQ300	0.000	
38	 C22	18.431	24.626	19.972	C.3	1	KGQ300	0.000	
39	 C23	18.858	25.610	15.616	C.2	1	KGQ300	0.000	
40	 C24	18.311	26.713	15.024	C.2	1	KGQ300	0.000	
41	 C25	19.044	27.859	14.666	C.2	1	KGQ300	0.000	
42	 C26	20.334	27.902	14.901	C.2	1	KGQ300	0.000	
43	 C27	20.939	26.878	15.466	C.2	1	KGQ300	0.000	
44	 C28	20.202	25.746	15.818	C.2	1	KGQ300	0.000	
45	 C29	17.849	23.247	20.304	C.3	1	KGQ300	0.000	
46	 C30	19.847	24.771	20.555	C.3	1	KGQ300	0.000	
47	 C31	22.270	29.285	15.107	C.3	1	KGQ300	0.000	
48	 C32	10.663	18.069	19.388	C.3	1	KGQ300	0.000	
49	   S	17.945	24.186	16.068	S.O2	1	KGQ300	0.000	
@<TRIPOS>BOND
1 2 5 1
2 4 7 1
3 5 8 1
4 4 9 2
5 4 11 1
6 1 12 1
7 10 13 1
8 2 14 1
9 10 14 1
10 1 16 1
11 12 17 1
12 14 17 1
13 16 18 1
14 12 19 2
15 16 20 1
16 18 21 1
17 20 22 1
18 22 24 1
19 22 26 2
20 8 27 1
21 24 28 2
22 26 29 1
23 3 30 1
24 28 30 1
25 29 30 2
26 3 31 1
27 4 31 1
28 7 32 1
29 32 33 1
30 11 34 1
31 34 35 1
32 6 36 1
33 18 36 1
34 6 37 1
35 37 38 1
36 39 40 2
37 40 41 1
38 15 42 1
39 41 42 2
40 42 43 1
41 39 44 1
42 43 44 2
43 38 45 1
44 38 46 1
45 15 47 1
46 2 48 1
47 13 48 1
48 27 48 1
49 6 49 1
50 23 49 2
51 25 49 2
52 39 49 1
@<TRIPOS>SUBSTRUCTURE
1	KGQ300	1	GROUP	1 B	KGQ
