# created with PyMOL 3.1.6.1
@<TRIPOS>MOLECULE
6w6t
102 105 1               
SMALL
USER_CHARGES
@<TRIPOS>ATOM
1	 P43	17.464	4.320	24.203	P.3	1	TK7103	0.000	
2	 C01	14.977	-5.528	13.423	C.2	1	TK7103	0.000	
3	 C02	14.756	-4.065	13.859	C.2	1	TK7103	0.000	
4	 C03	15.779	-3.392	14.777	C.2	1	TK7103	0.000	
5	 C04	16.994	-4.198	15.245	C.2	1	TK7103	0.000	
6	 C05	17.232	-5.651	14.815	C.2	1	TK7103	0.000	
7	 C06	16.209	-6.321	13.898	C.2	1	TK7103	0.000	
8	 S07	18.217	-3.385	16.327	S.O2	1	TK7103	0.000	
9	 O08	18.713	-4.286	17.363	O.2	1	TK7103	0.000	
10	 O09	17.575	-2.307	17.087	O.2	1	TK7103	0.000	
11	 N10	19.471	-2.831	15.247	N.3	1	TK7103	0.000	
12	 C11	20.167	-3.906	14.455	C.3	1	TK7103	0.000	
13	 C12	19.243	-1.516	14.553	C.3	1	TK7103	0.000	
14	 C13	20.196	-0.438	15.142	C.3	1	TK7103	0.000	
15	 O14	20.127	0.717	14.389	O.3	1	TK7103	0.000	
16	 C15	19.783	-0.123	16.576	C.3	1	TK7103	0.000	
17	 N16	20.722	0.832	17.114	N.pl3	1	TK7103	0.000	
18	 C17	21.775	0.469	18.075	C.2	1	TK7103	0.000	
19	 O18	21.861	-0.617	18.559	O.co2	1	TK7103	0.000	
20	 O19	22.684	1.523	18.368	O.3	1	TK7103	0.000	
21	 C20	23.584	1.370	19.564	C.3	1	TK7103	0.000	
22	 C21	24.745	1.748	19.226	C.3	1	TK7103	0.000	
23	 O22	24.571	3.375	19.079	O.3	1	TK7103	0.000	
24	 C23	23.185	2.433	20.622	C.3	1	TK7103	0.000	
25	 C24	23.841	3.719	20.082	C.3	1	TK7103	0.000	
26	 C25	21.860	2.681	20.649	C.3	1	TK7103	0.000	
27	 C26	21.582	3.889	19.588	C.3	1	TK7103	0.000	
28	 O27	22.648	4.653	19.626	O.3	1	TK7103	0.000	
29	 C28	18.405	0.557	16.614	C.3	1	TK7103	0.000	
30	 C29	18.215	1.077	18.059	C.2	1	TK7103	0.000	
31	 C30	17.875	0.071	19.166	C.2	1	TK7103	0.000	
32	 C31	17.690	0.570	20.607	C.2	1	TK7103	0.000	
33	 C32	17.849	2.069	20.910	C.2	1	TK7103	0.000	
34	 C33	18.195	3.071	19.796	C.2	1	TK7103	0.000	
35	 C34	18.377	2.575	18.357	C.2	1	TK7103	0.000	
36	 O35	17.675	2.522	22.241	O.3	1	TK7103	0.000	
37	 C36	23.718	-3.396	16.026	C.3	1	TK7103	0.000	
38	 C37	21.726	-3.672	14.482	C.3	1	TK7103	0.000	
39	 C38	22.263	-3.905	15.941	C.3	1	TK7103	0.000	
40	 C39	22.423	-4.621	13.459	C.3	1	TK7103	0.000	
41	 C40	22.333	-6.108	13.898	C.3	1	TK7103	0.000	
42	 N41	14.006	-6.178	12.544	N.pl3	1	TK7103	0.000	
43	 C42	17.713	3.933	22.385	C.3	1	TK7103	0.000	
44	 O44	18.398	3.268	25.110	O.3	1	TK7103	0.000	
45	 O45	15.843	4.120	24.531	O.3	1	TK7103	0.000	
46	 C46	18.380	1.885	24.816	C.3	1	TK7103	0.000	
47	 C47	15.434	3.924	25.869	C.3	1	TK7103	0.000	
48	 C48	18.691	1.055	26.085	C.3	1	TK7103	0.000	
49	 C49	14.967	5.295	26.507	C.3	1	TK7103	0.000	
50	 O50	17.844	5.710	24.469	O.2	1	TK7103	0.000	
51	H021	14.008	-3.596	13.567	 H	1	TK7103	0.000	
52	H031	15.665	-2.509	15.046	 H	1	TK7103	0.000	
53	H051	17.984	-6.115	15.107	 H	1	TK7103	0.000	
54	H061	16.330	-7.203	13.628	 H	1	TK7103	0.000	
55	H111	19.965	-4.772	14.842	 H	1	TK7103	0.000	
56	H112	19.855	-3.881	13.537	 H	1	TK7103	0.000	
57	H121	18.323	-1.238	14.683	 H	1	TK7103	0.000	
58	H122	19.419	-1.618	13.604	 H	1	TK7103	0.000	
59	H131	21.104	-0.779	15.127	 H	1	TK7103	0.000	
60	H141	19.315	0.950	14.302	 H	1	TK7103	0.000	
61	H151	19.759	-0.952	17.079	 H	1	TK7103	0.000	
62	H161	20.664	1.652	16.860	 H	1	TK7103	0.000	
63	H201	23.566	0.467	19.920	 H	1	TK7103	0.000	
64	H211	25.003	1.351	18.379	 H	1	TK7103	0.000	
65	H212	25.392	1.531	19.915	 H	1	TK7103	0.000	
66	H231	23.485	2.191	21.512	 H	1	TK7103	0.000	
67	H241	24.381	4.132	20.774	 H	1	TK7103	0.000	
68	H251	21.594	2.958	21.539	 H	1	TK7103	0.000	
69	H252	21.371	1.888	20.379	 H	1	TK7103	0.000	
70	H261	21.463	3.528	18.696	 H	1	TK7103	0.000	
71	H262	20.800	4.396	19.858	 H	1	TK7103	0.000	
72	H281	18.377	1.295	15.985	 H	1	TK7103	0.000	
73	H282	17.709	-0.082	16.392	 H	1	TK7103	0.000	
74	H301	17.783	-0.833	18.967	 H	1	TK7103	0.000	
75	H311	17.483	-0.029	21.288	 H	1	TK7103	0.000	
76	H331	18.293	3.974	19.995	 H	1	TK7103	0.000	
77	H341	18.582	3.173	17.675	 H	1	TK7103	0.000	
78	H361	23.884	-4.342	15.889	 H	1	TK7103	0.000	
79	H362	23.398	-3.124	16.901	 H	1	TK7103	0.000	
80	H363	23.410	-2.884	15.262	 H	1	TK7103	0.000	
81	H371	21.929	-2.758	14.226	 H	1	TK7103	0.000	
82	H381	21.710	-3.419	16.573	 H	1	TK7103	0.000	
83	H382	22.237	-4.852	16.150	 H	1	TK7103	0.000	
84	H391	21.993	-4.522	12.595	 H	1	TK7103	0.000	
85	H392	23.358	-4.372	13.385	 H	1	TK7103	0.000	
86	H401	21.507	-6.252	14.385	 H	1	TK7103	0.000	
87	H402	22.349	-6.678	13.113	 H	1	TK7103	0.000	
88	H403	23.087	-6.323	14.469	 H	1	TK7103	0.000	
89	H411	14.275	-6.717	11.930	 H	1	TK7103	0.000	
90	H412	13.166	-6.021	12.640	 H	1	TK7103	0.000	
91	H421	18.572	4.274	22.088	 H	1	TK7103	0.000	
92	H422	17.006	4.339	21.860	 H	1	TK7103	0.000	
93	H461	19.048	1.695	24.139	 H	1	TK7103	0.000	
94	H462	17.502	1.642	24.483	 H	1	TK7103	0.000	
95	H471	14.697	3.293	25.890	 H	1	TK7103	0.000	
96	H472	16.178	3.569	26.381	 H	1	TK7103	0.000	
97	H481	19.652	0.993	26.204	 H	1	TK7103	0.000	
98	H482	18.320	0.164	25.987	 H	1	TK7103	0.000	
99	H483	18.297	1.486	26.859	 H	1	TK7103	0.000	
100	H491	14.959	5.608	27.425	 H	1	TK7103	0.000	
101	H492	14.107	5.743	26.511	 H	1	TK7103	0.000	
102	H493	15.265	6.207	26.363	 H	1	TK7103	0.000	
@<TRIPOS>BOND
1 2 3 2
2 3 4 1
3 4 5 2
4 5 6 1
5 2 7 1
6 6 7 2
7 5 8 1
8 8 9 2
9 8 10 2
10 8 11 1
11 11 12 1
12 11 13 1
13 13 14 1
14 14 15 1
15 14 16 1
16 16 17 1
17 17 18 1
18 18 19 2
19 18 20 1
20 20 21 1
21 21 22 1
22 22 23 1
23 21 24 1
24 23 25 1
25 24 25 1
26 24 26 1
27 26 27 1
28 25 28 1
29 27 28 1
30 16 29 1
31 29 30 1
32 30 31 2
33 31 32 1
34 32 33 2
35 33 34 1
36 30 35 1
37 34 35 2
38 33 36 1
39 12 38 1
40 37 39 1
41 38 39 1
42 38 40 1
43 40 41 1
44 2 42 1
45 1 43 1
46 36 43 1
47 1 44 1
48 1 45 1
49 44 46 1
50 45 47 1
51 46 48 1
52 47 49 1
53 1 50 2
54 3 51 1
55 4 52 1
56 6 53 1
57 7 54 1
58 12 55 1
59 12 56 1
60 13 57 1
61 13 58 1
62 14 59 1
63 15 60 1
64 16 61 1
65 17 62 1
66 21 63 1
67 22 64 1
68 22 65 1
69 24 66 1
70 25 67 1
71 26 68 1
72 26 69 1
73 27 70 1
74 27 71 1
75 29 72 1
76 29 73 1
77 31 74 1
78 32 75 1
79 34 76 1
80 35 77 1
81 37 78 1
82 37 79 1
83 37 80 1
84 38 81 1
85 39 82 1
86 39 83 1
87 40 84 1
88 40 85 1
89 41 86 1
90 41 87 1
91 41 88 1
92 42 89 1
93 42 90 1
94 43 91 1
95 43 92 1
96 46 93 1
97 46 94 1
98 47 95 1
99 47 96 1
100 48 97 1
101 48 98 1
102 48 99 1
103 49 100 1
104 49 101 1
105 49 102 1
@<TRIPOS>SUBSTRUCTURE
1	TK7103	1	GROUP	1 A	TK7
