# created with PyMOL 3.1.6.1
@<TRIPOS>MOLECULE
2i4d
45 48 1                 
SMALL
USER_CHARGES
@<TRIPOS>ATOM
1	   C	11.888	18.187	18.320	C.3	1	QFI300	0.000	
2	   O	10.765	18.504	20.445	O.3	1	QFI300	0.000	
3	 P42	11.047	16.742	12.317	P.3	1	QFI300	0.000	
4	  C1	11.562	18.844	16.961	C.3	1	QFI300	0.000	
5	  N1	13.572	22.215	17.884	N.pl3	1	QFI300	0.000	
6	  O1	20.939	29.052	14.546	O.3	1	QFI300	0.000	
7	  C2	10.070	19.219	17.040	C.3	1	QFI300	0.000	
8	  N2	17.252	24.281	17.583	N.3	1	QFI300	0.000	
9	  C3	12.123	18.992	20.605	C.3	1	QFI300	0.000	
10	  C4	13.817	20.923	18.182	C.2	1	QFI300	0.000	
11	  O4	12.745	20.431	18.820	O.3	1	QFI300	0.000	
12	  C5	12.789	19.050	19.210	C.3	1	QFI300	0.000	
13	  O5	14.838	20.307	17.902	O.co2	1	QFI300	0.000	
14	  C6	14.540	23.023	17.187	C.3	1	QFI300	0.000	
15	  O6	13.660	24.976	18.235	O.3	1	QFI300	0.000	
16	  C7	14.843	24.205	18.134	C.3	1	QFI300	0.000	
17	  O7	16.785	23.902	15.042	O.2	1	QFI300	0.000	
18	  C8	13.941	23.543	15.858	C.3	1	QFI300	0.000	
19	  O8	18.816	22.942	15.999	O.2	1	QFI300	0.000	
20	  C9	13.336	22.411	15.034	C.2	1	QFI300	0.000	
21	  O9	9.756	19.233	18.435	O.3	1	QFI300	0.000	
22	 C10	14.172	21.541	14.304	C.2	1	QFI300	0.000	
23	 C11	11.937	22.240	15.005	C.2	1	QFI300	0.000	
24	 C12	13.606	20.498	13.544	C.2	1	QFI300	0.000	
25	 C13	11.370	21.199	14.247	C.2	1	QFI300	0.000	
26	 C14	12.202	20.327	13.513	C.2	1	QFI300	0.000	
27	 C15	16.008	25.084	17.607	C.3	1	QFI300	0.000	
28	 C16	18.217	24.938	18.489	C.3	1	QFI300	0.000	
29	 C17	18.292	24.254	19.879	C.3	1	QFI300	0.000	
30	 C18	18.797	25.556	15.571	C.2	1	QFI300	0.000	
31	 C19	18.153	26.621	14.919	C.2	1	QFI300	0.000	
32	 C20	18.875	27.780	14.579	C.2	1	QFI300	0.000	
33	 C21	20.239	27.886	14.886	C.2	1	QFI300	0.000	
34	 C22	20.884	26.812	15.534	C.2	1	QFI300	0.000	
35	 C23	20.164	25.651	15.876	C.2	1	QFI300	0.000	
36	 C24	17.397	23.000	19.917	C.3	1	QFI300	0.000	
37	 C25	19.732	23.794	20.128	C.3	1	QFI300	0.000	
38	 C26	22.311	29.118	14.973	C.3	1	QFI300	0.000	
39	 C27	10.548	18.219	19.056	C.3	1	QFI300	0.000	
40	 O40	11.640	19.298	12.764	O.3	1	QFI300	0.000	
41	 C41	11.915	18.009	13.292	C.3	1	QFI300	0.000	
42	 O43	11.532	16.801	10.798	O.2	1	QFI300	0.000	
43	 O44	11.358	15.414	12.892	O.3	1	QFI300	0.000	
44	 O45	9.474	17.007	12.367	O.3	1	QFI300	0.000	
45	   S	17.898	24.124	16.013	S.O2	1	QFI300	0.000	
@<TRIPOS>BOND
1 1 4 1
2 4 7 1
3 2 9 1
4 5 10 1
5 10 11 1
6 1 12 1
7 9 12 1
8 11 12 1
9 10 13 2
10 5 14 1
11 14 16 1
12 15 16 1
13 14 18 1
14 18 20 1
15 7 21 1
16 20 22 2
17 20 23 1
18 22 24 1
19 23 25 2
20 24 26 2
21 25 26 1
22 8 27 1
23 16 27 1
24 8 28 1
25 28 29 1
26 30 31 2
27 31 32 1
28 6 33 1
29 32 33 2
30 33 34 1
31 30 35 1
32 34 35 2
33 29 36 1
34 29 37 1
35 6 38 1
36 1 39 1
37 2 39 1
38 21 39 1
39 26 40 1
40 3 41 1
41 40 41 1
42 3 42 2
43 3 43 1
44 3 44 1
45 8 45 1
46 17 45 2
47 19 45 2
48 30 45 1
@<TRIPOS>SUBSTRUCTURE
1	QFI300	1	GROUP	1 B	QFI
