# created with PyMOL 3.1.6.1
@<TRIPOS>MOLECULE
6d0d
82 88 1                 
SMALL
USER_CHARGES
@<TRIPOS>ATOM
1	 C01	8.857	14.816	-5.750	C.3	1	FQ4400	0.000	
2	 C01	8.657	15.383	5.800	C.3	1	FQ4400	0.000	
3	 O01	10.675	15.954	-7.039	O.3	1	FQ4400	0.000	
4	 O01	8.395	17.263	7.351	O.3	1	FQ4400	0.000	
5	 C02	9.319	15.501	-7.061	C.3	1	FQ4400	0.000	
6	 C02	9.263	16.658	6.407	C.3	1	FQ4400	0.000	
7	  C2	8.207	16.616	7.149	C.2	1	FQ4400	0.000	
8	  C2	10.476	15.473	-7.103	C.2	1	FQ4400	0.000	
9	  C3	7.092	16.280	6.352	C.2	1	FQ4400	0.000	
10	  C3	10.637	14.297	-6.327	C.2	1	FQ4400	0.000	
11	 O03	8.063	16.955	8.454	O.3	1	FQ4400	0.000	
12	 O03	10.922	15.567	-8.374	O.3	1	FQ4400	0.000	
13	 C04	7.066	16.230	9.176	C.3	1	FQ4400	0.000	
14	 C04	11.888	14.601	-8.795	C.3	1	FQ4400	0.000	
15	  C4	7.272	15.912	5.019	C.2	1	FQ4400	0.000	
16	  C4	10.161	14.259	-5.013	C.2	1	FQ4400	0.000	
17	  C5	8.539	15.836	4.392	C.2	1	FQ4400	0.000	
18	  C5	9.496	15.342	-4.389	C.2	1	FQ4400	0.000	
19	 C06	11.752	13.244	-0.216	C.2	1	FQ4400	0.000	
20	 C06	5.564	16.929	0.230	C.2	1	FQ4400	0.000	
21	  C6	9.627	16.173	5.223	C.2	1	FQ4400	0.000	
22	  C6	9.366	16.485	-5.195	C.2	1	FQ4400	0.000	
23	 C07	12.471	14.420	-0.515	C.2	1	FQ4400	0.000	
24	 C07	6.257	18.110	0.565	C.2	1	FQ4400	0.000	
25	  C7	9.491	16.555	6.574	C.2	1	FQ4400	0.000	
26	  C7	9.834	16.577	-6.512	C.2	1	FQ4400	0.000	
27	 C08	13.533	14.297	-1.442	C.2	1	FQ4400	0.000	
28	 C08	5.645	18.971	1.502	C.2	1	FQ4400	0.000	
29	  S8	8.778	15.374	2.651	S.O2	1	FQ4400	0.000	
30	  S8	8.901	15.315	-2.661	S.O2	1	FQ4400	0.000	
31	  O9	10.093	14.839	2.523	O.2	1	FQ4400	0.000	
32	  O9	7.757	16.162	-2.539	O.2	1	FQ4400	0.000	
33	 O10	7.760	14.465	2.253	O.2	1	FQ4400	0.000	
34	 O10	8.668	13.964	-2.277	O.2	1	FQ4400	0.000	
35	 N11	8.626	16.843	1.719	N.3	1	FQ4400	0.000	
36	 N11	10.210	15.911	-1.724	N.3	1	FQ4400	0.000	
37	 C12	7.321	17.503	1.357	C.3	1	FQ4400	0.000	
38	 C12	11.519	15.247	-1.813	C.3	1	FQ4400	0.000	
39	 C13	6.384	16.712	0.363	C.3	1	FQ4400	0.000	
40	 C13	12.218	14.927	-0.477	C.3	1	FQ4400	0.000	
41	 C14	4.935	16.592	0.895	C.3	1	FQ4400	0.000	
42	 C14	13.712	14.806	-0.696	C.3	1	FQ4400	0.000	
43	 C15	6.378	17.360	-1.025	C.3	1	FQ4400	0.000	
44	 C15	11.649	13.643	0.153	C.3	1	FQ4400	0.000	
45	 C16	9.842	17.737	1.495	C.3	1	FQ4400	0.000	
46	 C16	10.354	17.406	-1.471	C.3	1	FQ4400	0.000	
47	 C17	10.311	17.726	-0.015	C.3	1	FQ4400	0.000	
48	 C17	10.136	17.783	0.035	C.3	1	FQ4400	0.000	
49	 O18	11.447	18.499	-0.143	O.3	1	FQ4400	0.000	
50	 O18	10.237	19.151	0.161	O.3	1	FQ4400	0.000	
51	 C19	10.689	16.256	-0.495	C.3	1	FQ4400	0.000	
52	 C19	8.680	17.379	0.515	C.3	1	FQ4400	0.000	
53	 N20	10.788	16.269	-1.955	N.pl3	1	FQ4400	0.000	
54	 N20	8.669	17.376	1.986	N.pl3	1	FQ4400	0.000	
55	 C21	10.160	15.352	-2.796	C.2	1	FQ4400	0.000	
56	 C21	8.128	16.366	2.788	C.2	1	FQ4400	0.000	
57	 O22	9.245	14.633	-2.395	O.co2	1	FQ4400	0.000	
58	 O22	8.010	15.206	2.387	O.co2	1	FQ4400	0.000	
59	 O23	10.566	15.241	-4.094	O.3	1	FQ4400	0.000	
60	 O23	7.729	16.701	4.053	O.3	1	FQ4400	0.000	
61	 C24	10.030	14.227	-4.963	C.3	1	FQ4400	0.000	
62	 C24	7.377	15.750	5.065	C.3	1	FQ4400	0.000	
63	 C27	11.693	14.966	-6.771	C.3	1	FQ4400	0.000	
64	 C27	7.083	17.611	6.868	C.3	1	FQ4400	0.000	
65	 O28	12.734	15.486	-5.947	O.3	1	FQ4400	0.000	
66	 O28	7.078	18.723	5.975	O.3	1	FQ4400	0.000	
67	 C29	13.365	14.424	-5.231	C.3	1	FQ4400	0.000	
68	 C29	5.840	18.719	5.257	C.3	1	FQ4400	0.000	
69	 C30	12.367	13.237	-5.264	C.3	1	FQ4400	0.000	
70	 C30	5.321	17.250	5.327	C.3	1	FQ4400	0.000	
71	 C31	11.128	13.775	-5.980	C.3	1	FQ4400	0.000	
72	 C31	6.412	16.472	6.077	C.3	1	FQ4400	0.000	
73	 C32	12.036	15.745	0.136	C.3	1	FQ4400	0.000	
74	 C32	7.613	18.366	-0.056	C.3	1	FQ4400	0.000	
75	 C33	12.079	11.994	-0.780	C.2	1	FQ4400	0.000	
76	 C33	4.304	16.615	0.785	C.2	1	FQ4400	0.000	
77	 C34	13.882	13.073	-2.019	C.2	1	FQ4400	0.000	
78	 C34	4.405	18.680	2.073	C.2	1	FQ4400	0.000	
79	 C35	13.154	11.897	-1.697	C.2	1	FQ4400	0.000	
80	 C35	3.708	17.496	1.718	C.2	1	FQ4400	0.000	
81	 F01	13.436	10.738	-2.216	 F	1	FQ4400	0.000	
82	 F01	2.550	17.188	2.226	 F	1	FQ4400	0.000	
@<TRIPOS>BOND
1 1 5 1
2 3 5 1
3 2 6 1
4 4 6 1
5 7 9 2
6 8 10 2
7 7 11 1
8 8 12 1
9 11 13 1
10 12 14 1
11 9 15 1
12 10 16 1
13 15 17 2
14 16 18 2
15 17 21 1
16 18 22 1
17 19 23 1
18 20 24 1
19 7 25 1
20 21 25 2
21 8 26 1
22 22 26 2
23 23 27 2
24 24 28 2
25 17 29 1
26 18 30 1
27 29 31 2
28 30 32 2
29 29 33 2
30 30 34 2
31 29 35 1
32 30 36 1
33 35 37 1
34 36 38 1
35 37 39 1
36 38 40 1
37 39 41 1
38 40 42 1
39 39 43 1
40 40 44 1
41 35 45 1
42 36 46 1
43 45 47 1
44 46 48 1
45 47 49 1
46 48 50 1
47 47 51 1
48 48 52 1
49 51 53 1
50 52 54 1
51 53 55 1
52 54 56 1
53 55 57 2
54 56 58 2
55 55 59 1
56 56 60 1
57 1 61 1
58 59 61 1
59 2 62 1
60 60 62 1
61 3 63 1
62 4 64 1
63 63 65 1
64 64 66 1
65 65 67 1
66 66 68 1
67 67 69 1
68 68 70 1
69 61 71 1
70 63 71 1
71 69 71 1
72 62 72 1
73 64 72 1
74 70 72 1
75 23 73 1
76 51 73 1
77 24 74 1
78 52 74 1
79 19 75 2
80 20 76 2
81 27 77 1
82 28 78 1
83 75 79 1
84 77 79 2
85 76 80 1
86 78 80 2
87 79 81 1
88 80 82 1
@<TRIPOS>SUBSTRUCTURE
1	FQ4400	1	GROUP	1 B	FQ4
